
     RDKit          3D

 17 17  0  0  0  0  0  0  0  0999 V2000
   -3.5311    0.3837    0.1949 O   0  0  0  0  0  0  0  0  0  0  0  0
   -2.2612    0.2958    0.1897 C   0  0  0  0  0  0  0  0  0  0  0  0
   -1.6656   -1.0704    0.0551 C   0  0  0  0  0  0  0  0  0  0  0  0
   -0.3726   -1.0505    0.5111 O   0  0  0  0  0  0  0  0  0  0  0  0
    0.3604   -0.1040   -0.1974 C   0  0  0  0  0  0  0  0  0  0  0  0
    1.8207   -0.4325   -0.0017 C   0  0  0  0  0  0  0  0  0  0  0  0
    2.6530    0.4675   -0.6793 O   0  0  0  0  0  0  0  0  0  0  0  0
   -0.0079    1.2611    0.2784 C   0  0  0  0  0  0  0  0  0  0  0  0
   -1.4195    1.3654    0.2989 O   0  0  0  0  0  0  0  0  0  0  0  0
   -2.2984   -1.7396    0.6692 H   0  0  0  0  0  0  0  0  0  0  0  0
   -1.6977   -1.3288   -1.0219 H   0  0  0  0  0  0  0  0  0  0  0  0
    0.0796   -0.2016   -1.2553 H   0  0  0  0  0  0  0  0  0  0  0  0
    2.0321   -1.4291   -0.4409 H   0  0  0  0  0  0  0  0  0  0  0  0
    2.0733   -0.4748    1.0683 H   0  0  0  0  0  0  0  0  0  0  0  0
    3.4756    0.5397   -0.1175 H   0  0  0  0  0  0  0  0  0  0  0  0
    0.3640    1.9937   -0.4678 H   0  0  0  0  0  0  0  0  0  0  0  0
    0.3954    1.5244    1.2666 H   0  0  0  0  0  0  0  0  0  0  0  0
  1  2  2  0
  2  3  1  0
  3  4  1  0
  4  5  1  0
  5  6  1  0
  6  7  1  0
  5  8  1  0
  8  9  1  0
  9  2  1  0
  3 10  1  0
  3 11  1  0
  5 12  1  0
  6 13  1  0
  6 14  1  0
  7 15  1  0
  8 16  1  0
  8 17  1  0
M  END
