
     RDKit          3D

 17 18  0  0  0  0  0  0  0  0999 V2000
   -1.2247   -2.6000    0.1086 O   0  0  0  0  0  0  0  0  0  0  0  0
   -1.2236   -1.3965    0.0995 C   0  0  0  0  0  0  0  0  0  0  0  0
   -2.2248   -0.3275   -0.1153 C   0  0  0  0  0  0  0  0  0  0  0  0
   -1.1188    0.7332   -0.0628 C   0  0  0  0  0  0  0  0  0  0  0  0
   -0.1961   -0.3411    0.3033 C   0  0  0  0  0  0  0  0  0  0  0  0
    0.5270   -0.3123    1.4677 O   0  0  0  0  0  0  0  0  0  0  0  0
    1.1331   -0.5784    0.1369 C   0  0  0  0  0  0  0  0  0  0  0  0
    2.2352    0.4223   -0.0970 C   0  0  0  0  0  0  0  0  0  0  0  0
    1.8105    1.7235   -0.0835 O   0  0  0  0  0  0  0  0  0  0  0  0
   -2.9523   -0.2352    0.7220 H   0  0  0  0  0  0  0  0  0  0  0  0
   -2.7644   -0.3819   -1.0657 H   0  0  0  0  0  0  0  0  0  0  0  0
   -1.3089    1.4762    0.7464 H   0  0  0  0  0  0  0  0  0  0  0  0
   -1.0194    1.2293   -1.0309 H   0  0  0  0  0  0  0  0  0  0  0  0
    1.5298   -1.6341    0.1743 H   0  0  0  0  0  0  0  0  0  0  0  0
    3.0385    0.2052    0.6625 H   0  0  0  0  0  0  0  0  0  0  0  0
    2.7082    0.1577   -1.0796 H   0  0  0  0  0  0  0  0  0  0  0  0
    1.0505    1.8595    0.5296 H   0  0  0  0  0  0  0  0  0  0  0  0
  1  2  2  0
  2  3  1  0
  3  4  1  0
  4  5  1  0
  5  6  1  0
  6  7  1  0
  7  8  1  0
  8  9  1  0
  5  2  1  0
  7  5  1  0
  3 10  1  0
  3 11  1  0
  4 12  1  0
  4 13  1  0
  7 14  1  0
  8 15  1  0
  8 16  1  0
  9 17  1  0
M  END
