
     RDKit          3D

 19 21  0  0  0  0  0  0  0  0999 V2000
    2.7544    2.0058   -0.8669 O   0  0  0  0  0  0  0  0  0  0  0  0
    2.2795    1.0167   -0.3916 C   0  0  0  0  0  0  0  0  0  0  0  0
    2.5783   -0.4233   -0.3313 C   0  0  0  0  0  0  0  0  0  0  0  0
    1.1836   -0.7684    0.1072 C   0  0  0  0  0  0  0  0  0  0  0  0
    1.0767    0.7540    0.4216 C   0  0  0  0  0  0  0  0  0  0  0  0
    0.0040    0.0129   -0.2612 C   0  0  0  0  0  0  0  0  0  0  0  0
   -1.2740   -0.3037    0.4804 C   0  0  0  0  0  0  0  0  0  0  0  0
   -2.5119    0.4425    0.1663 C   0  0  0  0  0  0  0  0  0  0  0  0
   -2.3899   -0.9661   -0.3386 C   0  0  0  0  0  0  0  0  0  0  0  0
    2.9389   -0.9010   -1.2560 H   0  0  0  0  0  0  0  0  0  0  0  0
    3.3196   -0.6118    0.4981 H   0  0  0  0  0  0  0  0  0  0  0  0
    1.1035   -1.4649    0.9489 H   0  0  0  0  0  0  0  0  0  0  0  0
    1.0779    0.9542    1.5067 H   0  0  0  0  0  0  0  0  0  0  0  0
   -0.1488    0.2527   -1.3338 H   0  0  0  0  0  0  0  0  0  0  0  0
   -1.1407   -0.6158    1.5257 H   0  0  0  0  0  0  0  0  0  0  0  0
   -2.4118    1.2625   -0.5714 H   0  0  0  0  0  0  0  0  0  0  0  0
   -3.2712    0.5929    0.9669 H   0  0  0  0  0  0  0  0  0  0  0  0
   -2.2443   -1.0688   -1.4298 H   0  0  0  0  0  0  0  0  0  0  0  0
   -2.9237   -1.7924    0.1587 H   0  0  0  0  0  0  0  0  0  0  0  0
  1  2  2  0
  2  3  1  0
  3  4  1  0
  4  5  1  0
  5  6  1  0
  6  7  1  0
  7  8  1  0
  8  9  1  0
  5  2  1  0
  9  7  1  0
  6  4  1  0
  3 10  1  0
  3 11  1  0
  4 12  1  0
  5 13  1  0
  6 14  1  0
  7 15  1  0
  8 16  1  0
  8 17  1  0
  9 18  1  0
  9 19  1  0
M  END
