
     RDKit          3D

 15 16  0  0  0  0  0  0  0  0999 V2000
   -3.0672    1.1695    0.8991 O   0  0  0  0  0  0  0  0  0  0  0  0
   -2.0814    0.4030    0.7530 C   0  0  0  0  0  0  0  0  0  0  0  0
   -1.6217   -0.6315    1.5587 O   0  0  0  0  0  0  0  0  0  0  0  0
   -0.4667   -0.9146    0.7993 C   0  0  0  0  0  0  0  0  0  0  0  0
    0.3856    0.2742    0.3418 C   0  0  0  0  0  0  0  0  0  0  0  0
    1.6118   -0.1478   -0.4009 C   0  0  0  0  0  0  0  0  0  0  0  0
    2.3991    0.8961   -0.8257 O   0  0  0  0  0  0  0  0  0  0  0  0
   -0.9696    0.1381   -0.1855 C   0  0  0  0  0  0  0  0  0  0  0  0
   -1.2449   -0.2809   -1.4768 O   0  0  0  0  0  0  0  0  0  0  0  0
   -0.2959   -1.8949    0.3620 H   0  0  0  0  0  0  0  0  0  0  0  0
    0.5727    1.0527    1.1169 H   0  0  0  0  0  0  0  0  0  0  0  0
    2.2267   -0.7808    0.3043 H   0  0  0  0  0  0  0  0  0  0  0  0
    1.3738   -0.8332   -1.2479 H   0  0  0  0  0  0  0  0  0  0  0  0
    3.0403    1.1544   -0.1101 H   0  0  0  0  0  0  0  0  0  0  0  0
   -1.8627    0.3956   -1.8883 H   0  0  0  0  0  0  0  0  0  0  0  0
  1  2  2  0
  2  3  1  0
  3  4  1  0
  4  5  1  0
  5  6  1  0
  6  7  1  0
  5  8  1  0
  8  9  1  0
  8  2  1  0
  8  4  1  0
  4 10  1  0
  5 11  1  0
  6 12  1  0
  6 13  1  0
  7 14  1  0
  9 15  1  0
M  END
