
     RDKit          3D

 17 19  0  0  0  0  0  0  0  0999 V2000
    3.2585    1.2116   -0.4249 O   0  0  0  0  0  0  0  0  0  0  0  0
    2.2662    0.4704   -0.4679 C   0  0  0  0  0  0  0  0  0  0  0  0
    1.6555   -0.5544    0.3929 C   0  0  0  0  0  0  0  0  0  0  0  0
    0.4303   -0.1232   -0.3548 C   0  0  0  0  0  0  0  0  0  0  0  0
   -0.6361   -1.1046   -0.5824 C   0  0  0  0  0  0  0  0  0  0  0  0
   -1.4474   -0.3191    0.4607 C   0  0  0  0  0  0  0  0  0  0  0  0
   -1.8970    0.9951    0.0007 C   0  0  0  0  0  0  0  0  0  0  0  0
   -0.4623    0.8628    0.2898 C   0  0  0  0  0  0  0  0  0  0  0  0
    1.2555    0.2742   -1.3836 O   0  0  0  0  0  0  0  0  0  0  0  0
    1.5691   -0.3206    1.4549 H   0  0  0  0  0  0  0  0  0  0  0  0
    1.9857   -1.5737    0.1237 H   0  0  0  0  0  0  0  0  0  0  0  0
   -1.1492   -1.0348   -1.5675 H   0  0  0  0  0  0  0  0  0  0  0  0
   -0.5019   -2.1386   -0.2451 H   0  0  0  0  0  0  0  0  0  0  0  0
   -1.4867   -0.6828    1.4820 H   0  0  0  0  0  0  0  0  0  0  0  0
   -2.4863    1.6456    0.6769 H   0  0  0  0  0  0  0  0  0  0  0  0
   -2.2777    1.0485   -1.0512 H   0  0  0  0  0  0  0  0  0  0  0  0
   -0.0761    1.3435    1.1957 H   0  0  0  0  0  0  0  0  0  0  0  0
  1  2  2  0
  2  3  1  0
  3  4  1  0
  4  5  1  0
  5  6  1  0
  6  7  1  0
  7  8  1  0
  4  9  1  0
  9  2  1  0
  8  4  1  0
  8  6  1  0
  3 10  1  0
  3 11  1  0
  5 12  1  0
  5 13  1  0
  6 14  1  0
  7 15  1  0
  7 16  1  0
  8 17  1  0
M  END
