
     RDKit          3D

 14 15  0  0  0  0  0  0  0  0999 V2000
   -1.3196   -1.5062    1.3625 O   0  0  0  0  0  0  0  0  0  0  0  0
   -0.9940   -0.7500    0.4815 C   0  0  0  0  0  0  0  0  0  0  0  0
   -1.7547    0.0195   -0.5324 C   0  0  0  0  0  0  0  0  0  0  0  0
   -0.5741    0.0305   -1.3132 O   0  0  0  0  0  0  0  0  0  0  0  0
    0.1171   -0.1253   -0.1559 C   0  0  0  0  0  0  0  0  0  0  0  0
    1.4662   -0.6629   -0.1316 C   0  0  0  0  0  0  0  0  0  0  0  0
    1.7485    0.1664    0.9810 O   0  0  0  0  0  0  0  0  0  0  0  0
    0.7861    1.0452    0.4631 C   0  0  0  0  0  0  0  0  0  0  0  0
   -2.6034   -0.4786   -0.9978 H   0  0  0  0  0  0  0  0  0  0  0  0
   -1.9754    1.0637   -0.1895 H   0  0  0  0  0  0  0  0  0  0  0  0
    1.6436   -1.7313    0.0667 H   0  0  0  0  0  0  0  0  0  0  0  0
    2.1147   -0.3262   -0.9658 H   0  0  0  0  0  0  0  0  0  0  0  0
    1.2033    1.7337   -0.2960 H   0  0  0  0  0  0  0  0  0  0  0  0
    0.1419    1.5213    1.2274 H   0  0  0  0  0  0  0  0  0  0  0  0
  1  2  2  0
  2  3  1  0
  3  4  1  0
  4  5  1  0
  5  6  1  0
  6  7  1  0
  7  8  1  0
  5  2  1  0
  8  5  1  0
  3  9  1  0
  3 10  1  0
  6 11  1  0
  6 12  1  0
  8 13  1  0
  8 14  1  0
M  END
