
     RDKit          3D

 17 19  0  0  0  0  0  0  0  0999 V2000
    2.2385   -1.7261   -0.2318 O   0  0  0  0  0  0  0  0  0  0  0  0
    1.6716   -0.6755   -0.1219 C   0  0  0  0  0  0  0  0  0  0  0  0
    2.1752    0.7373   -0.2543 C   0  0  0  0  0  0  0  0  0  0  0  0
    0.9763    1.2430    0.2334 O   0  0  0  0  0  0  0  0  0  0  0  0
    0.4224    0.0035    0.1446 C   0  0  0  0  0  0  0  0  0  0  0  0
   -0.4464   -0.4727    1.2454 C   0  0  0  0  0  0  0  0  0  0  0  0
   -1.6762   -0.3740    0.3895 C   0  0  0  0  0  0  0  0  0  0  0  0
   -1.8825    0.7172   -0.5674 C   0  0  0  0  0  0  0  0  0  0  0  0
   -0.7105   -0.1856   -0.8179 C   0  0  0  0  0  0  0  0  0  0  0  0
    2.3399    1.0414   -1.3069 H   0  0  0  0  0  0  0  0  0  0  0  0
    3.0074    0.9773    0.4469 H   0  0  0  0  0  0  0  0  0  0  0  0
   -0.4649    0.1139    2.1823 H   0  0  0  0  0  0  0  0  0  0  0  0
   -0.2419   -1.5656    1.4505 H   0  0  0  0  0  0  0  0  0  0  0  0
   -2.3624   -1.2442    0.3334 H   0  0  0  0  0  0  0  0  0  0  0  0
   -2.7252    0.6350   -1.2534 H   0  0  0  0  0  0  0  0  0  0  0  0
   -1.5804    1.7715   -0.3369 H   0  0  0  0  0  0  0  0  0  0  0  0
   -0.7410   -0.9963   -1.5356 H   0  0  0  0  0  0  0  0  0  0  0  0
  1  2  2  0
  2  3  1  0
  3  4  1  0
  4  5  1  0
  5  6  1  0
  6  7  1  0
  7  8  1  0
  8  9  1  0
  5  2  1  0
  9  7  1  0
  9  5  1  0
  3 10  1  0
  3 11  1  0
  6 12  1  0
  6 13  1  0
  7 14  1  0
  8 15  1  0
  8 16  1  0
  9 17  1  0
M  END
