
     RDKit          3D

 19 20  0  0  0  0  0  0  0  0999 V2000
   -2.4468    1.1193   -0.8339 O   0  0  0  0  0  0  0  0  0  0  0  0
   -1.8166    0.4784   -0.0106 C   0  0  0  0  0  0  0  0  0  0  0  0
   -1.8713   -0.8300    0.6915 C   0  0  0  0  0  0  0  0  0  0  0  0
   -0.3975   -0.6920    0.9698 C   0  0  0  0  0  0  0  0  0  0  0  0
    0.5067   -1.0918   -0.1872 C   0  0  0  0  0  0  0  0  0  0  0  0
    1.5344    0.0438   -0.0842 C   0  0  0  0  0  0  0  0  0  0  0  0
    2.4362    0.0173   -1.1075 O   0  0  0  0  0  0  0  0  0  0  0  0
    0.5863    1.2303   -0.1365 C   0  0  0  0  0  0  0  0  0  0  0  0
   -0.5590    0.7893    0.7307 C   0  0  0  0  0  0  0  0  0  0  0  0
   -2.1124   -1.6923    0.0710 H   0  0  0  0  0  0  0  0  0  0  0  0
   -2.4333   -0.7282    1.6498 H   0  0  0  0  0  0  0  0  0  0  0  0
   -0.0514   -0.9871    1.9602 H   0  0  0  0  0  0  0  0  0  0  0  0
    0.9556   -2.0734   -0.0675 H   0  0  0  0  0  0  0  0  0  0  0  0
   -0.0880   -0.9570   -1.1135 H   0  0  0  0  0  0  0  0  0  0  0  0
    1.9699   -0.0295    0.9290 H   0  0  0  0  0  0  0  0  0  0  0  0
    3.2257    0.5607   -0.8347 H   0  0  0  0  0  0  0  0  0  0  0  0
    0.2120    1.2795   -1.1792 H   0  0  0  0  0  0  0  0  0  0  0  0
    1.0656    2.1620    0.1882 H   0  0  0  0  0  0  0  0  0  0  0  0
   -0.7161    1.4004    1.6586 H   0  0  0  0  0  0  0  0  0  0  0  0
  1  2  2  0
  2  3  1  0
  3  4  1  0
  4  5  1  0
  5  6  1  0
  6  7  1  0
  6  8  1  0
  8  9  1  0
  9  2  1  0
  9  4  1  0
  3 10  1  0
  3 11  1  0
  4 12  1  0
  5 13  1  0
  5 14  1  0
  6 15  1  0
  7 16  1  0
  8 17  1  0
  8 18  1  0
  9 19  1  0
M  END
