
     RDKit          3D

 19 19  0  0  0  0  0  0  0  0999 V2000
   -0.9339   -0.2968    2.5498 O   0  0  0  0  0  0  0  0  0  0  0  0
   -1.0313   -0.0313    1.3193 C   0  0  0  0  0  0  0  0  0  0  0  0
   -2.2591    0.4855    0.6995 C   0  0  0  0  0  0  0  0  0  0  0  0
   -1.9849    0.3375   -0.7602 C   0  0  0  0  0  0  0  0  0  0  0  0
   -0.5412    0.0332   -0.8641 C   0  0  0  0  0  0  0  0  0  0  0  0
    0.0063   -0.1772    0.3132 C   0  0  0  0  0  0  0  0  0  0  0  0
    1.4059   -0.5039    0.6195 C   0  0  0  0  0  0  0  0  0  0  0  0
    2.2740   -0.5956   -0.6117 C   0  0  0  0  0  0  0  0  0  0  0  0
    2.2971    0.6047   -1.3199 O   0  0  0  0  0  0  0  0  0  0  0  0
   -3.1267   -0.1471    1.0435 H   0  0  0  0  0  0  0  0  0  0  0  0
   -2.4377    1.5077    1.0225 H   0  0  0  0  0  0  0  0  0  0  0  0
   -2.2366    1.2963   -1.2553 H   0  0  0  0  0  0  0  0  0  0  0  0
   -2.6156   -0.4743   -1.1626 H   0  0  0  0  0  0  0  0  0  0  0  0
   -0.0495    0.0040   -1.8514 H   0  0  0  0  0  0  0  0  0  0  0  0
    1.4946   -1.4155    1.2145 H   0  0  0  0  0  0  0  0  0  0  0  0
    1.8488    0.3216    1.2458 H   0  0  0  0  0  0  0  0  0  0  0  0
    3.3085   -0.8048   -0.2649 H   0  0  0  0  0  0  0  0  0  0  0  0
    1.9951   -1.4428   -1.2691 H   0  0  0  0  0  0  0  0  0  0  0  0
    2.5863    1.2987   -0.6684 H   0  0  0  0  0  0  0  0  0  0  0  0
  1  2  2  0
  2  3  1  0
  3  4  1  0
  4  5  1  0
  5  6  2  0
  6  7  1  0
  7  8  1  0
  8  9  1  0
  6  2  1  0
  3 10  1  0
  3 11  1  0
  4 12  1  0
  4 13  1  0
  5 14  1  0
  7 15  1  0
  7 16  1  0
  8 17  1  0
  8 18  1  0
  9 19  1  0
M  END
