
     RDKit          3D

 15 16  0  0  0  0  0  0  0  0999 V2000
    0.1673    2.5557   -0.4828 O   0  0  0  0  0  0  0  0  0  0  0  0
    0.2254    1.4125   -0.1089 C   0  0  0  0  0  0  0  0  0  0  0  0
   -0.7450    0.3310   -0.4673 C   0  0  0  0  0  0  0  0  0  0  0  0
   -1.7342    0.3444    0.5249 O   0  0  0  0  0  0  0  0  0  0  0  0
    0.0849   -0.9579   -0.2952 C   0  0  0  0  0  0  0  0  0  0  0  0
   -0.2354   -1.6259    0.8538 O   0  0  0  0  0  0  0  0  0  0  0  0
    1.4598   -0.3823   -0.3360 C   0  0  0  0  0  0  0  0  0  0  0  0
    2.2837    0.0682    0.5682 O   0  0  0  0  0  0  0  0  0  0  0  0
    1.1612    0.7085    0.7463 C   0  0  0  0  0  0  0  0  0  0  0  0
   -1.1416    0.4266   -1.4778 H   0  0  0  0  0  0  0  0  0  0  0  0
   -2.5517   -0.1279    0.2578 H   0  0  0  0  0  0  0  0  0  0  0  0
   -0.0933   -1.5521   -1.2155 H   0  0  0  0  0  0  0  0  0  0  0  0
   -1.1726   -1.5433    1.1415 H   0  0  0  0  0  0  0  0  0  0  0  0
    1.6812    0.0209   -1.3734 H   0  0  0  0  0  0  0  0  0  0  0  0
    0.6102    0.3217    1.6643 H   0  0  0  0  0  0  0  0  0  0  0  0
  1  2  2  0
  2  3  1  0
  3  4  1  0
  3  5  1  0
  5  6  1  0
  5  7  1  0
  7  8  1  0
  8  9  1  0
  9  2  1  0
  9  7  1  0
  3 10  1  0
  4 11  1  0
  5 12  1  0
  6 13  1  0
  7 14  1  0
  9 15  1  0
M  END
