
     RDKit          3D

 11 12  0  0  0  0  0  0  0  0999 V2000
    1.9482   -1.5097    0.5531 O   0  0  0  0  0  0  0  0  0  0  0  0
    1.0560   -0.8211    0.0518 C   0  0  0  0  0  0  0  0  0  0  0  0
   -0.2143   -1.2859   -0.3267 O   0  0  0  0  0  0  0  0  0  0  0  0
   -1.1240   -0.1733   -0.2217 C   0  0  0  0  0  0  0  0  0  0  0  0
   -0.3115    0.7806    0.5819 C   0  0  0  0  0  0  0  0  0  0  0  0
    0.5872    1.6775    0.2989 O   0  0  0  0  0  0  0  0  0  0  0  0
    0.9615    0.6022   -0.3146 C   0  0  0  0  0  0  0  0  0  0  0  0
   -1.4436    0.1811   -1.1980 H   0  0  0  0  0  0  0  0  0  0  0  0
   -2.0145   -0.4972    0.3636 H   0  0  0  0  0  0  0  0  0  0  0  0
   -0.2103    0.3956    1.6447 H   0  0  0  0  0  0  0  0  0  0  0  0
    0.7653    0.6502   -1.4330 H   0  0  0  0  0  0  0  0  0  0  0  0
  1  2  2  0
  2  3  1  0
  3  4  1  0
  4  5  1  0
  5  6  1  0
  6  7  1  0
  7  2  1  0
  7  5  1  0
  4  8  1  0
  4  9  1  0
  5 10  1  0
  7 11  1  0
M  END
