
     RDKit          3D

 19 19  0  0  0  0  0  0  0  0999 V2000
    1.5688   -1.4927    1.7743 O   0  0  0  0  0  0  0  0  0  0  0  0
    1.7754   -0.6098    0.9623 C   0  0  0  0  0  0  0  0  0  0  0  0
    2.7967   -0.2762   -0.0899 C   0  0  0  0  0  0  0  0  0  0  0  0
    1.7407    0.3663   -0.7773 O   0  0  0  0  0  0  0  0  0  0  0  0
    1.2062    0.6651    0.4756 C   0  0  0  0  0  0  0  0  0  0  0  0
   -0.3060    0.7428    0.4983 C   0  0  0  0  0  0  0  0  0  0  0  0
   -0.8922   -0.3472   -0.3767 C   0  0  0  0  0  0  0  0  0  0  0  0
   -2.4037   -0.2747   -0.3581 C   0  0  0  0  0  0  0  0  0  0  0  0
   -2.7990   -0.4488    0.9709 O   0  0  0  0  0  0  0  0  0  0  0  0
    3.2328   -1.1313   -0.6063 H   0  0  0  0  0  0  0  0  0  0  0  0
    3.5162    0.4929    0.2938 H   0  0  0  0  0  0  0  0  0  0  0  0
    1.7192    1.5301    0.9339 H   0  0  0  0  0  0  0  0  0  0  0  0
   -0.5935    1.7094    0.0367 H   0  0  0  0  0  0  0  0  0  0  0  0
   -0.7125    0.7087    1.5176 H   0  0  0  0  0  0  0  0  0  0  0  0
   -0.4737   -0.2581   -1.3904 H   0  0  0  0  0  0  0  0  0  0  0  0
   -0.6208   -1.3454    0.0309 H   0  0  0  0  0  0  0  0  0  0  0  0
   -2.7661    0.7043   -0.7570 H   0  0  0  0  0  0  0  0  0  0  0  0
   -2.8292   -1.1009   -0.9331 H   0  0  0  0  0  0  0  0  0  0  0  0
   -3.1593    0.3654    1.3692 H   0  0  0  0  0  0  0  0  0  0  0  0
  1  2  2  0
  2  3  1  0
  3  4  1  0
  4  5  1  0
  5  6  1  0
  6  7  1  0
  7  8  1  0
  8  9  1  0
  5  2  1  0
  3 10  1  0
  3 11  1  0
  5 12  1  0
  6 13  1  0
  6 14  1  0
  7 15  1  0
  7 16  1  0
  8 17  1  0
  8 18  1  0
  9 19  1  0
M  END
