
     RDKit          3D

 19 21  0  0  0  0  0  0  0  0999 V2000
   -1.2795   -2.4550   -0.0384 O   0  0  0  0  0  0  0  0  0  0  0  0
   -0.7354   -1.4143   -0.0263 C   0  0  0  0  0  0  0  0  0  0  0  0
    0.2374   -0.8137    0.9369 C   0  0  0  0  0  0  0  0  0  0  0  0
    1.3797   -0.8176   -0.1130 C   0  0  0  0  0  0  0  0  0  0  0  0
    0.6305    0.1934   -1.0133 C   0  0  0  0  0  0  0  0  0  0  0  0
    0.6939    1.3152    0.0416 C   0  0  0  0  0  0  0  0  0  0  0  0
   -0.2489    0.5942    1.0235 C   0  0  0  0  0  0  0  0  0  0  0  0
   -1.4653    0.6653    0.0713 C   0  0  0  0  0  0  0  0  0  0  0  0
   -0.7934   -0.2616   -0.9717 C   0  0  0  0  0  0  0  0  0  0  0  0
    0.4426   -1.3499    1.8117 H   0  0  0  0  0  0  0  0  0  0  0  0
    1.4674   -1.7924   -0.5953 H   0  0  0  0  0  0  0  0  0  0  0  0
    2.2937   -0.3934    0.2937 H   0  0  0  0  0  0  0  0  0  0  0  0
    1.0876    0.4024   -1.9322 H   0  0  0  0  0  0  0  0  0  0  0  0
    1.6654    1.3667    0.5263 H   0  0  0  0  0  0  0  0  0  0  0  0
    0.2717    2.2439   -0.3180 H   0  0  0  0  0  0  0  0  0  0  0  0
   -0.3774    1.0526    1.9553 H   0  0  0  0  0  0  0  0  0  0  0  0
   -2.3315    0.1847    0.5293 H   0  0  0  0  0  0  0  0  0  0  0  0
   -1.6138    1.6667   -0.3184 H   0  0  0  0  0  0  0  0  0  0  0  0
   -1.3247   -0.3872   -1.8629 H   0  0  0  0  0  0  0  0  0  0  0  0
  1  2  2  0
  2  3  1  0
  3  4  1  0
  4  5  1  0
  5  6  1  0
  6  7  1  0
  7  8  1  0
  8  9  1  0
  9  2  1  0
  7  3  1  0
  9  5  1  0
  3 10  1  0
  4 11  1  0
  4 12  1  0
  5 13  1  0
  6 14  1  0
  6 15  1  0
  7 16  1  0
  8 17  1  0
  8 18  1  0
  9 19  1  0
M  END
