
     RDKit          3D

 17 18  0  0  0  0  0  0  0  0999 V2000
   -0.2239   -1.9678    1.8449 O   0  0  0  0  0  0  0  0  0  0  0  0
   -0.0218   -1.2107    0.9469 C   0  0  0  0  0  0  0  0  0  0  0  0
   -0.1955   -1.3408   -0.5433 C   0  0  0  0  0  0  0  0  0  0  0  0
   -1.1419   -0.1736   -0.7585 C   0  0  0  0  0  0  0  0  0  0  0  0
   -0.6339    0.8948    0.2242 C   0  0  0  0  0  0  0  0  0  0  0  0
   -0.1201    1.9661   -0.5322 O   0  0  0  0  0  0  0  0  0  0  0  0
    0.4971    0.2081    0.9215 C   0  0  0  0  0  0  0  0  0  0  0  0
    1.5726   -0.0122   -0.1487 C   0  0  0  0  0  0  0  0  0  0  0  0
    1.0916   -1.0198   -0.9754 O   0  0  0  0  0  0  0  0  0  0  0  0
   -0.5537   -2.2933   -0.8650 H   0  0  0  0  0  0  0  0  0  0  0  0
   -2.1337   -0.4822   -0.3655 H   0  0  0  0  0  0  0  0  0  0  0  0
   -1.1598    0.1904   -1.7849 H   0  0  0  0  0  0  0  0  0  0  0  0
   -1.4162    1.2430    0.8960 H   0  0  0  0  0  0  0  0  0  0  0  0
   -0.6098    2.8005   -0.3848 H   0  0  0  0  0  0  0  0  0  0  0  0
    0.8363    0.5871    1.8453 H   0  0  0  0  0  0  0  0  0  0  0  0
    2.4828   -0.3098    0.4077 H   0  0  0  0  0  0  0  0  0  0  0  0
    1.7299    0.9202   -0.7280 H   0  0  0  0  0  0  0  0  0  0  0  0
  1  2  2  0
  2  3  1  0
  3  4  1  0
  4  5  1  0
  5  6  1  0
  5  7  1  0
  7  8  1  0
  8  9  1  0
  7  2  1  0
  9  3  1  0
  3 10  1  0
  4 11  1  0
  4 12  1  0
  5 13  1  0
  6 14  1  0
  7 15  1  0
  8 16  1  0
  8 17  1  0
M  END
