
     RDKit          3D

 15 16  0  0  0  0  0  0  0  0999 V2000
    0.1234    2.7345   -0.2007 O   0  0  0  0  0  0  0  0  0  0  0  0
    0.0758    1.4824   -0.1470 C   0  0  0  0  0  0  0  0  0  0  0  0
   -1.1939    0.7186   -0.0972 C   0  0  0  0  0  0  0  0  0  0  0  0
   -0.9412   -0.5345    0.6778 C   0  0  0  0  0  0  0  0  0  0  0  0
    0.0871   -1.3586   -0.0552 C   0  0  0  0  0  0  0  0  0  0  0  0
    0.4020   -1.0948   -1.3659 O   0  0  0  0  0  0  0  0  0  0  0  0
    1.3148   -0.7311   -0.2415 C   0  0  0  0  0  0  0  0  0  0  0  0
    1.3275    0.7417   -0.1328 C   0  0  0  0  0  0  0  0  0  0  0  0
    2.4149    1.3622   -0.0279 O   0  0  0  0  0  0  0  0  0  0  0  0
   -1.5196    0.4070   -1.1274 H   0  0  0  0  0  0  0  0  0  0  0  0
   -2.0275    1.3266    0.3158 H   0  0  0  0  0  0  0  0  0  0  0  0
   -1.8763   -1.1156    0.8771 H   0  0  0  0  0  0  0  0  0  0  0  0
   -0.4914   -0.2569    1.6716 H   0  0  0  0  0  0  0  0  0  0  0  0
    0.0113   -2.4417    0.1765 H   0  0  0  0  0  0  0  0  0  0  0  0
    2.2931   -1.2398   -0.3232 H   0  0  0  0  0  0  0  0  0  0  0  0
  1  2  2  0
  2  3  1  0
  3  4  1  0
  4  5  1  0
  5  6  1  0
  6  7  1  0
  7  8  1  0
  8  9  2  0
  8  2  1  0
  7  5  1  0
  3 10  1  0
  3 11  1  0
  4 12  1  0
  4 13  1  0
  5 14  1  0
  7 15  1  0
M  END
