
     RDKit          3D

 19 19  0  0  0  0  0  0  0  0999 V2000
    1.1703    1.3256   -1.6137 O   0  0  0  0  0  0  0  0  0  0  0  0
    0.9085    0.9252   -0.5143 C   0  0  0  0  0  0  0  0  0  0  0  0
    1.5908   -0.3416   -0.1331 C   0  0  0  0  0  0  0  0  0  0  0  0
    0.6942   -1.4972   -0.4330 C   0  0  0  0  0  0  0  0  0  0  0  0
   -0.2614   -1.7603    0.4939 O   0  0  0  0  0  0  0  0  0  0  0  0
   -1.0358   -0.7276    0.9059 C   0  0  0  0  0  0  0  0  0  0  0  0
   -1.6253    0.1242   -0.1598 C   0  0  0  0  0  0  0  0  0  0  0  0
   -1.3606    1.4823    0.0072 O   0  0  0  0  0  0  0  0  0  0  0  0
   -0.0536    1.7713    0.2693 C   0  0  0  0  0  0  0  0  0  0  0  0
    2.5035   -0.4534   -0.7849 H   0  0  0  0  0  0  0  0  0  0  0  0
    1.9033   -0.3070    0.9120 H   0  0  0  0  0  0  0  0  0  0  0  0
    0.3049   -1.3759   -1.4808 H   0  0  0  0  0  0  0  0  0  0  0  0
    1.3575   -2.4105   -0.5036 H   0  0  0  0  0  0  0  0  0  0  0  0
   -0.4927   -0.0969    1.6695 H   0  0  0  0  0  0  0  0  0  0  0  0
   -1.8941   -1.1622    1.5004 H   0  0  0  0  0  0  0  0  0  0  0  0
   -1.3051   -0.1564   -1.1965 H   0  0  0  0  0  0  0  0  0  0  0  0
   -2.7527    0.0464   -0.1978 H   0  0  0  0  0  0  0  0  0  0  0  0
    0.2143    1.7893    1.3472 H   0  0  0  0  0  0  0  0  0  0  0  0
    0.1338    2.8247   -0.0879 H   0  0  0  0  0  0  0  0  0  0  0  0
  1  2  2  0
  2  3  1  0
  3  4  1  0
  4  5  1  0
  5  6  1  0
  6  7  1  0
  7  8  1  0
  8  9  1  0
  9  2  1  0
  3 10  1  0
  3 11  1  0
  4 12  1  0
  4 13  1  0
  6 14  1  0
  6 15  1  0
  7 16  1  0
  7 17  1  0
  9 18  1  0
  9 19  1  0
M  END
