
     RDKit          3D

 17 18  0  0  0  0  0  0  0  0999 V2000
    1.8821   -1.9356   -0.4818 O   0  0  0  0  0  0  0  0  0  0  0  0
    1.3613   -0.8670   -0.2928 C   0  0  0  0  0  0  0  0  0  0  0  0
    1.3471    0.1405    0.7872 C   0  0  0  0  0  0  0  0  0  0  0  0
    0.1503    0.7834    0.1559 C   0  0  0  0  0  0  0  0  0  0  0  0
    0.2088    2.1324   -0.0685 O   0  0  0  0  0  0  0  0  0  0  0  0
   -1.1347    0.2094    0.6464 C   0  0  0  0  0  0  0  0  0  0  0  0
   -1.2973   -1.0012   -0.2578 C   0  0  0  0  0  0  0  0  0  0  0  0
   -0.7402   -0.5980   -1.4829 O   0  0  0  0  0  0  0  0  0  0  0  0
    0.4473   -0.0187   -1.0895 C   0  0  0  0  0  0  0  0  0  0  0  0
    2.2712    0.7534    0.8065 H   0  0  0  0  0  0  0  0  0  0  0  0
    1.0835   -0.2814    1.7788 H   0  0  0  0  0  0  0  0  0  0  0  0
   -0.6011    2.3913   -0.5766 H   0  0  0  0  0  0  0  0  0  0  0  0
   -0.9629   -0.1345    1.7025 H   0  0  0  0  0  0  0  0  0  0  0  0
   -1.9607    0.9193    0.5642 H   0  0  0  0  0  0  0  0  0  0  0  0
   -0.6513   -1.8155    0.1152 H   0  0  0  0  0  0  0  0  0  0  0  0
   -2.3351   -1.2731   -0.4326 H   0  0  0  0  0  0  0  0  0  0  0  0
    0.9318    0.5953   -1.8744 H   0  0  0  0  0  0  0  0  0  0  0  0
  1  2  2  0
  2  3  1  0
  3  4  1  0
  4  5  1  0
  4  6  1  0
  6  7  1  0
  7  8  1  0
  8  9  1  0
  9  2  1  0
  9  4  1  0
  3 10  1  0
  3 11  1  0
  5 12  1  0
  6 13  1  0
  6 14  1  0
  7 15  1  0
  7 16  1  0
  9 17  1  0
M  END
