
     RDKit          3D

 15 16  0  0  0  0  0  0  0  0999 V2000
   -0.6534    2.5359   -0.4473 O   0  0  0  0  0  0  0  0  0  0  0  0
   -0.0814    1.4228   -0.3596 C   0  0  0  0  0  0  0  0  0  0  0  0
    1.2085    1.2241   -0.8847 O   0  0  0  0  0  0  0  0  0  0  0  0
    1.7812   -0.0526   -0.5747 C   0  0  0  0  0  0  0  0  0  0  0  0
    1.6422   -0.2036    0.8158 O   0  0  0  0  0  0  0  0  0  0  0  0
    0.3073   -0.6140    1.0178 C   0  0  0  0  0  0  0  0  0  0  0  0
   -0.6725    0.2342    0.2813 C   0  0  0  0  0  0  0  0  0  0  0  0
   -1.7970   -0.3979   -0.4736 C   0  0  0  0  0  0  0  0  0  0  0  0
   -1.9511    0.2373    0.7643 O   0  0  0  0  0  0  0  0  0  0  0  0
    2.8287   -0.0621   -0.8976 H   0  0  0  0  0  0  0  0  0  0  0  0
    1.1421   -0.8048   -1.0798 H   0  0  0  0  0  0  0  0  0  0  0  0
    0.1792   -1.6946    0.8305 H   0  0  0  0  0  0  0  0  0  0  0  0
    0.1288   -0.4563    2.1214 H   0  0  0  0  0  0  0  0  0  0  0  0
   -1.7604   -1.4893   -0.5334 H   0  0  0  0  0  0  0  0  0  0  0  0
   -2.3023    0.1209   -1.2825 H   0  0  0  0  0  0  0  0  0  0  0  0
  1  2  2  0
  2  3  1  0
  3  4  1  0
  4  5  1  0
  5  6  1  0
  6  7  1  0
  7  8  1  0
  8  9  1  0
  7  2  1  0
  9  7  1  0
  4 10  1  0
  4 11  1  0
  6 12  1  0
  6 13  1  0
  8 14  1  0
  8 15  1  0
M  END
