
     RDKit          3D

 19 20  0  0  0  0  0  0  0  0999 V2000
    2.0904    2.1098   -0.3139 O   0  0  0  0  0  0  0  0  0  0  0  0
    1.1770    1.3260    0.1053 C   0  0  0  0  0  0  0  0  0  0  0  0
    1.6322   -0.0592    0.4630 C   0  0  0  0  0  0  0  0  0  0  0  0
    0.6661   -1.0297   -0.1649 C   0  0  0  0  0  0  0  0  0  0  0  0
   -0.6037   -1.1976    0.6080 C   0  0  0  0  0  0  0  0  0  0  0  0
   -1.2629   -0.1731   -0.2889 C   0  0  0  0  0  0  0  0  0  0  0  0
   -1.3049    1.1979    0.3371 C   0  0  0  0  0  0  0  0  0  0  0  0
   -0.0858    1.8961    0.1572 O   0  0  0  0  0  0  0  0  0  0  0  0
   -0.1462   -0.3573   -1.2611 C   0  0  0  0  0  0  0  0  0  0  0  0
    2.6360   -0.2305    0.0390 H   0  0  0  0  0  0  0  0  0  0  0  0
    1.6451   -0.1068    1.5616 H   0  0  0  0  0  0  0  0  0  0  0  0
    1.1533   -1.9628   -0.4441 H   0  0  0  0  0  0  0  0  0  0  0  0
   -1.0719   -2.1987    0.3740 H   0  0  0  0  0  0  0  0  0  0  0  0
   -0.5856   -0.9724    1.6742 H   0  0  0  0  0  0  0  0  0  0  0  0
   -2.2636   -0.4510   -0.6496 H   0  0  0  0  0  0  0  0  0  0  0  0
   -1.3750    1.0238    1.4513 H   0  0  0  0  0  0  0  0  0  0  0  0
   -2.1840    1.7870    0.0628 H   0  0  0  0  0  0  0  0  0  0  0  0
    0.3069    0.5385   -1.6888 H   0  0  0  0  0  0  0  0  0  0  0  0
   -0.4235   -1.1397   -2.0220 H   0  0  0  0  0  0  0  0  0  0  0  0
  1  2  2  0
  2  3  1  0
  3  4  1  0
  4  5  1  0
  5  6  1  0
  6  7  1  0
  7  8  1  0
  6  9  1  0
  8  2  1  0
  9  4  1  0
  3 10  1  0
  3 11  1  0
  4 12  1  0
  5 13  1  0
  5 14  1  0
  6 15  1  0
  7 16  1  0
  7 17  1  0
  9 18  1  0
  9 19  1  0
M  END
