
     RDKit          3D

 15 17  0  0  0  0  0  0  0  0999 V2000
    3.3297   -0.0713   -0.1598 O   0  0  0  0  0  0  0  0  0  0  0  0
    2.1023   -0.1420   -0.1169 C   0  0  0  0  0  0  0  0  0  0  0  0
    1.2300    1.0667   -0.0561 C   0  0  0  0  0  0  0  0  0  0  0  0
   -0.0542    0.9399    0.0003 C   0  0  0  0  0  0  0  0  0  0  0  0
   -1.5024    0.8971    0.0635 C   0  0  0  0  0  0  0  0  0  0  0  0
   -1.3047   -0.6271   -0.2428 C   0  0  0  0  0  0  0  0  0  0  0  0
   -0.0535   -1.3474   -0.4036 C   0  0  0  0  0  0  0  0  0  0  0  0
    1.3221   -1.3024   -0.1165 O   0  0  0  0  0  0  0  0  0  0  0  0
   -0.3476   -0.4935    0.6721 C   0  0  0  0  0  0  0  0  0  0  0  0
    1.6234    2.0492   -0.0617 H   0  0  0  0  0  0  0  0  0  0  0  0
   -2.0931    1.4008   -0.7117 H   0  0  0  0  0  0  0  0  0  0  0  0
   -1.8733    0.9911    1.1042 H   0  0  0  0  0  0  0  0  0  0  0  0
   -2.2055   -1.2508   -0.1982 H   0  0  0  0  0  0  0  0  0  0  0  0
   -0.0722   -1.5015   -1.4507 H   0  0  0  0  0  0  0  0  0  0  0  0
   -0.1007   -0.6088    1.6779 H   0  0  0  0  0  0  0  0  0  0  0  0
  1  2  2  0
  2  3  1  0
  3  4  2  0
  4  5  1  0
  5  6  1  0
  6  7  1  0
  7  8  1  0
  7  9  1  0
  8  2  1  0
  9  4  1  0
  9  6  1  0
  3 10  1  0
  5 11  1  0
  5 12  1  0
  6 13  1  0
  7 14  1  0
  9 15  1  0
M  END
