
     RDKit          2D

 15 17  0  0  0  0  0  0  0  0999 V2000
    2.5607    0.0000    0.0000 O   0  0  0  0  0  0  0  0  0  0  0  0
    1.0607    0.0000    0.0000 C   0  0  0  0  0  0  0  0  0  0  0  0
   -0.0000   -1.0607    0.0000 O   0  0  0  0  0  0  0  0  0  0  0  0
   -1.0607    0.0000    0.0000 C   0  0  0  0  0  0  0  0  0  0  0  0
   -2.1213    1.0607    0.0000 C   0  0  0  0  0  0  0  0  0  0  0  0
   -1.6578    2.4872    0.0000 C   0  0  0  0  0  0  0  0  0  0  0  0
   -0.1578    2.4872    0.0000 O   0  0  0  0  0  0  0  0  0  0  0  0
    0.0000    1.0607    0.0000 C   0  0  0  0  0  0  0  0  0  0  0  0
   -1.0607    2.1213    0.0000 C   0  0  0  0  0  0  0  0  0  0  0  0
   -2.1213   -1.0607    0.0000 H   0  0  0  0  0  0  0  0  0  0  0  0
   -3.6213    1.0607    0.0000 H   0  0  0  0  0  0  0  0  0  0  0  0
   -3.1250    2.7991    0.0000 H   0  0  0  0  0  0  0  0  0  0  0  0
   -1.5010    3.9790    0.0000 H   0  0  0  0  0  0  0  0  0  0  0  0
   -2.1213    3.1820    0.0000 H   0  0  0  0  0  0  0  0  0  0  0  0
   -0.2882    3.4071    0.0000 H   0  0  0  0  0  0  0  0  0  0  0  0
  1  2  2  0
  2  3  1  0
  3  4  1  0
  4  5  1  0
  5  6  1  0
  6  7  1  0
  7  8  1  0
  8  9  1  0
  8  2  1  0
  8  4  1  0
  9  5  1  0
  4 10  1  0
  5 11  1  0
  6 12  1  0
  6 13  1  0
  9 14  1  0
  9 15  1  0
M  END
