
     RDKit          3D

 15 17  0  0  0  0  0  0  0  0999 V2000
   -0.3428   -0.6230    2.4966 O   0  0  0  0  0  0  0  0  0  0  0  0
   -0.3935   -0.3946    1.3228 C   0  0  0  0  0  0  0  0  0  0  0  0
   -1.5966   -0.1581    0.5091 C   0  0  0  0  0  0  0  0  0  0  0  0
   -1.7857    1.0825   -0.0959 O   0  0  0  0  0  0  0  0  0  0  0  0
   -1.2000    0.0940   -0.8466 C   0  0  0  0  0  0  0  0  0  0  0  0
    0.2984    0.1368   -0.9177 C   0  0  0  0  0  0  0  0  0  0  0  0
    1.1000    1.0643   -0.1168 C   0  0  0  0  0  0  0  0  0  0  0  0
    0.7841   -0.2959    0.3971 C   0  0  0  0  0  0  0  0  0  0  0  0
    1.7455   -1.2858    0.4241 O   0  0  0  0  0  0  0  0  0  0  0  0
   -2.5625   -0.6560    0.7732 H   0  0  0  0  0  0  0  0  0  0  0  0
   -1.7475   -0.3913   -1.6752 H   0  0  0  0  0  0  0  0  0  0  0  0
    0.7736   -0.3237   -1.8152 H   0  0  0  0  0  0  0  0  0  0  0  0
    0.6524    1.9074    0.4499 H   0  0  0  0  0  0  0  0  0  0  0  0
    2.1426    1.2353   -0.4213 H   0  0  0  0  0  0  0  0  0  0  0  0
    2.1319   -1.3919   -0.4841 H   0  0  0  0  0  0  0  0  0  0  0  0
  1  2  2  0
  2  3  1  0
  3  4  1  0
  4  5  1  0
  5  6  1  0
  6  7  1  0
  7  8  1  0
  8  9  1  0
  8  2  1  0
  5  3  1  0
  8  6  1  0
  3 10  1  0
  5 11  1  0
  6 12  1  0
  7 13  1  0
  7 14  1  0
  9 15  1  0
M  END
