
     RDKit          3D

 19 20  0  0  0  0  0  0  0  0999 V2000
    0.6778    2.3684   -0.1118 O   0  0  0  0  0  0  0  0  0  0  0  0
    0.9417    1.1978   -0.0792 C   0  0  0  0  0  0  0  0  0  0  0  0
    2.1840    0.3769    0.0496 C   0  0  0  0  0  0  0  0  0  0  0  0
    1.4262   -0.7015   -0.7418 C   0  0  0  0  0  0  0  0  0  0  0  0
    0.2015   -0.0679   -0.1464 C   0  0  0  0  0  0  0  0  0  0  0  0
   -0.2148   -0.5413    1.1767 C   0  0  0  0  0  0  0  0  0  0  0  0
   -1.5113   -0.3681    1.3164 C   0  0  0  0  0  0  0  0  0  0  0  0
   -2.1103    0.2441    0.0954 C   0  0  0  0  0  0  0  0  0  0  0  0
   -1.0455   -0.0997   -0.9553 C   0  0  0  0  0  0  0  0  0  0  0  0
    2.4137    0.0492    1.0919 H   0  0  0  0  0  0  0  0  0  0  0  0
    3.0622    0.7770   -0.4645 H   0  0  0  0  0  0  0  0  0  0  0  0
    1.6716   -1.7160   -0.4282 H   0  0  0  0  0  0  0  0  0  0  0  0
    1.5192   -0.4666   -1.8133 H   0  0  0  0  0  0  0  0  0  0  0  0
    0.4632   -0.9658    1.9101 H   0  0  0  0  0  0  0  0  0  0  0  0
   -2.1142   -0.6207    2.1863 H   0  0  0  0  0  0  0  0  0  0  0  0
   -2.1658    1.3322    0.1316 H   0  0  0  0  0  0  0  0  0  0  0  0
   -3.0551   -0.2739   -0.1120 H   0  0  0  0  0  0  0  0  0  0  0  0
   -1.2427   -1.1413   -1.3344 H   0  0  0  0  0  0  0  0  0  0  0  0
   -1.1015    0.6172   -1.7710 H   0  0  0  0  0  0  0  0  0  0  0  0
  1  2  2  0
  2  3  1  0
  3  4  1  0
  4  5  1  0
  5  6  1  0
  6  7  2  0
  7  8  1  0
  8  9  1  0
  5  2  1  0
  9  5  1  0
  3 10  1  0
  3 11  1  0
  4 12  1  0
  4 13  1  0
  6 14  1  0
  7 15  1  0
  8 16  1  0
  8 17  1  0
  9 18  1  0
  9 19  1  0
M  END
