
     RDKit          3D

 16 16  0  0  0  0  0  0  0  0999 V2000
    0.2671   -2.4843    0.3115 O   0  0  0  0  0  0  0  0  0  0  0  0
    0.0539   -1.3044    0.2080 C   0  0  0  0  0  0  0  0  0  0  0  0
   -1.3102   -0.7988   -0.0418 C   0  0  0  0  0  0  0  0  0  0  0  0
   -1.3273    0.6939   -0.1988 C   0  0  0  0  0  0  0  0  0  0  0  0
   -0.2595    1.3819   -0.5456 C   0  0  0  0  0  0  0  0  0  0  0  0
    1.0172    0.6636   -0.7936 C   0  0  0  0  0  0  0  0  0  0  0  0
    1.1655   -0.3426    0.3313 C   0  0  0  0  0  0  0  0  0  0  0  0
    1.0963    0.3930    1.5214 O   0  0  0  0  0  0  0  0  0  0  0  0
   -1.9188   -1.0680    0.8705 H   0  0  0  0  0  0  0  0  0  0  0  0
   -1.7678   -1.2104   -0.9525 H   0  0  0  0  0  0  0  0  0  0  0  0
   -2.2788    1.1816   -0.0089 H   0  0  0  0  0  0  0  0  0  0  0  0
   -0.2630    2.4566   -0.6608 H   0  0  0  0  0  0  0  0  0  0  0  0
    0.8785    0.0767   -1.7219 H   0  0  0  0  0  0  0  0  0  0  0  0
    1.8922    1.3340   -0.8262 H   0  0  0  0  0  0  0  0  0  0  0  0
    2.1371   -0.8747    0.2754 H   0  0  0  0  0  0  0  0  0  0  0  0
    0.6175   -0.0980    2.2320 H   0  0  0  0  0  0  0  0  0  0  0  0
  1  2  2  0
  2  3  1  0
  3  4  1  0
  4  5  2  0
  5  6  1  0
  6  7  1  0
  7  8  1  0
  7  2  1  0
  3  9  1  0
  3 10  1  0
  4 11  1  0
  5 12  1  0
  6 13  1  0
  6 14  1  0
  7 15  1  0
  8 16  1  0
M  END
