
     RDKit          3D

 17 18  0  0  0  0  0  0  0  0999 V2000
    3.5608   -0.2080    0.3282 O   0  0  0  0  0  0  0  0  0  0  0  0
    2.3051   -0.1324    0.4095 C   0  0  0  0  0  0  0  0  0  0  0  0
    1.2815   -0.0892   -0.6751 C   0  0  0  0  0  0  0  0  0  0  0  0
    0.3451   -0.0132    0.4892 C   0  0  0  0  0  0  0  0  0  0  0  0
   -0.6752   -1.1180    0.4746 C   0  0  0  0  0  0  0  0  0  0  0  0
   -1.6186   -0.5827   -0.5766 C   0  0  0  0  0  0  0  0  0  0  0  0
   -1.5413    0.7466   -0.5871 C   0  0  0  0  0  0  0  0  0  0  0  0
   -0.5455    1.2016    0.4509 C   0  0  0  0  0  0  0  0  0  0  0  0
    1.3397   -0.0588    1.4333 O   0  0  0  0  0  0  0  0  0  0  0  0
    1.2086   -1.0096   -1.2854 H   0  0  0  0  0  0  0  0  0  0  0  0
    1.3533    0.8626   -1.2331 H   0  0  0  0  0  0  0  0  0  0  0  0
   -0.2848   -2.0990    0.2268 H   0  0  0  0  0  0  0  0  0  0  0  0
   -1.2515   -1.0705    1.4237 H   0  0  0  0  0  0  0  0  0  0  0  0
   -2.2377   -1.2260   -1.1965 H   0  0  0  0  0  0  0  0  0  0  0  0
   -2.1069    1.3770   -1.2390 H   0  0  0  0  0  0  0  0  0  0  0  0
   -1.1018    1.3061    1.4007 H   0  0  0  0  0  0  0  0  0  0  0  0
   -0.0309    2.1135    0.1559 H   0  0  0  0  0  0  0  0  0  0  0  0
  1  2  2  0
  2  3  1  0
  3  4  1  0
  4  5  1  0
  5  6  1  0
  6  7  2  0
  7  8  1  0
  4  9  1  0
  9  2  1  0
  8  4  1  0
  3 10  1  0
  3 11  1  0
  5 12  1  0
  5 13  1  0
  6 14  1  0
  7 15  1  0
  8 16  1  0
  8 17  1  0
M  END
