
     RDKit          3D

 15 16  0  0  0  0  0  0  0  0999 V2000
    3.0660   -1.0622    1.1074 O   0  0  0  0  0  0  0  0  0  0  0  0
    2.0764   -0.6117    0.4784 C   0  0  0  0  0  0  0  0  0  0  0  0
    2.0756    0.5852   -0.2447 O   0  0  0  0  0  0  0  0  0  0  0  0
    0.7265    1.0506   -0.2932 C   0  0  0  0  0  0  0  0  0  0  0  0
   -0.0508   -0.1788   -0.0315 C   0  0  0  0  0  0  0  0  0  0  0  0
   -1.2811   -0.0228    0.8532 C   0  0  0  0  0  0  0  0  0  0  0  0
   -1.8361   -1.0889    0.1073 O   0  0  0  0  0  0  0  0  0  0  0  0
   -1.1324   -0.5428   -0.9911 C   0  0  0  0  0  0  0  0  0  0  0  0
    0.8122   -1.1925    0.3730 O   0  0  0  0  0  0  0  0  0  0  0  0
    0.5542    1.7639    0.5489 H   0  0  0  0  0  0  0  0  0  0  0  0
    0.4943    1.5172   -1.2841 H   0  0  0  0  0  0  0  0  0  0  0  0
   -1.1054   -0.2352    1.9049 H   0  0  0  0  0  0  0  0  0  0  0  0
   -1.8323    0.9112    0.6108 H   0  0  0  0  0  0  0  0  0  0  0  0
   -1.6638    0.3500   -1.3478 H   0  0  0  0  0  0  0  0  0  0  0  0
   -0.9032   -1.2433   -1.7915 H   0  0  0  0  0  0  0  0  0  0  0  0
  1  2  2  0
  2  3  1  0
  3  4  1  0
  4  5  1  0
  5  6  1  0
  6  7  1  0
  7  8  1  0
  5  9  1  0
  9  2  1  0
  8  5  1  0
  4 10  1  0
  4 11  1  0
  6 12  1  0
  6 13  1  0
  8 14  1  0
  8 15  1  0
M  END
