
     RDKit          3D

 14 15  0  0  0  0  0  0  0  0999 V2000
    2.2379    1.5910   -0.4200 O   0  0  0  0  0  0  0  0  0  0  0  0
    1.1766    0.9728   -0.1868 C   0  0  0  0  0  0  0  0  0  0  0  0
    1.2643   -0.4461    0.2007 C   0  0  0  0  0  0  0  0  0  0  0  0
    0.0003   -1.1789   -0.0600 C   0  0  0  0  0  0  0  0  0  0  0  0
   -0.5228   -0.8715   -1.3850 O   0  0  0  0  0  0  0  0  0  0  0  0
   -1.2053   -0.4725   -0.2506 C   0  0  0  0  0  0  0  0  0  0  0  0
   -1.1786    0.9673    0.1874 C   0  0  0  0  0  0  0  0  0  0  0  0
   -0.0353    1.6476   -0.3026 O   0  0  0  0  0  0  0  0  0  0  0  0
    2.0587   -0.9028   -0.4592 H   0  0  0  0  0  0  0  0  0  0  0  0
    1.5854   -0.5440    1.2535 H   0  0  0  0  0  0  0  0  0  0  0  0
   -0.0051   -2.2545    0.2019 H   0  0  0  0  0  0  0  0  0  0  0  0
   -2.1763   -0.9751   -0.0034 H   0  0  0  0  0  0  0  0  0  0  0  0
   -2.1086    1.5134   -0.0850 H   0  0  0  0  0  0  0  0  0  0  0  0
   -1.0912    0.9533    1.3091 H   0  0  0  0  0  0  0  0  0  0  0  0
  1  2  2  0
  2  3  1  0
  3  4  1  0
  4  5  1  0
  5  6  1  0
  6  7  1  0
  7  8  1  0
  8  2  1  0
  6  4  1  0
  3  9  1  0
  3 10  1  0
  4 11  1  0
  6 12  1  0
  7 13  1  0
  7 14  1  0
M  END
