
     RDKit          3D

 19 19  0  0  0  0  0  0  0  0999 V2000
    0.5025    2.9019   -0.1084 O   0  0  0  0  0  0  0  0  0  0  0  0
    0.2765    1.6554   -0.1221 C   0  0  0  0  0  0  0  0  0  0  0  0
    1.3906    0.7393   -0.4403 C   0  0  0  0  0  0  0  0  0  0  0  0
    1.4145   -0.3999    0.5229 C   0  0  0  0  0  0  0  0  0  0  0  0
    0.3053   -1.3611    0.4099 C   0  0  0  0  0  0  0  0  0  0  0  0
   -0.7587   -1.0325   -0.5743 C   0  0  0  0  0  0  0  0  0  0  0  0
   -1.7512    0.0026   -0.0487 C   0  0  0  0  0  0  0  0  0  0  0  0
   -1.0886    1.2976    0.1867 C   0  0  0  0  0  0  0  0  0  0  0  0
   -1.8014    2.1686    0.7117 O   0  0  0  0  0  0  0  0  0  0  0  0
    2.3367    1.3138   -0.3054 H   0  0  0  0  0  0  0  0  0  0  0  0
    1.3774    0.4149   -1.4983 H   0  0  0  0  0  0  0  0  0  0  0  0
    1.4213    0.0328    1.5529 H   0  0  0  0  0  0  0  0  0  0  0  0
    2.4222   -0.8974    0.4242 H   0  0  0  0  0  0  0  0  0  0  0  0
   -0.1995   -1.5579    1.3965 H   0  0  0  0  0  0  0  0  0  0  0  0
    0.7327   -2.3667    0.1248 H   0  0  0  0  0  0  0  0  0  0  0  0
   -0.4137   -0.7316   -1.5581 H   0  0  0  0  0  0  0  0  0  0  0  0
   -1.3757   -1.9667   -0.7231 H   0  0  0  0  0  0  0  0  0  0  0  0
   -2.5254    0.1500   -0.8202 H   0  0  0  0  0  0  0  0  0  0  0  0
   -2.2656   -0.3631    0.8694 H   0  0  0  0  0  0  0  0  0  0  0  0
  1  2  2  0
  2  3  1  0
  3  4  1  0
  4  5  1  0
  5  6  1  0
  6  7  1  0
  7  8  1  0
  8  9  2  0
  8  2  1  0
  3 10  1  0
  3 11  1  0
  4 12  1  0
  4 13  1  0
  5 14  1  0
  5 15  1  0
  6 16  1  0
  6 17  1  0
  7 18  1  0
  7 19  1  0
M  END
