
     RDKit          3D

 17 18  0  0  0  0  0  0  0  0999 V2000
    1.1610   -1.6963   -1.7161 O   0  0  0  0  0  0  0  0  0  0  0  0
    0.7510   -1.0614   -0.7573 C   0  0  0  0  0  0  0  0  0  0  0  0
    1.7490   -0.4245    0.1626 C   0  0  0  0  0  0  0  0  0  0  0  0
    1.3209    0.9852    0.3280 C   0  0  0  0  0  0  0  0  0  0  0  0
    0.0568    1.3706    0.2421 C   0  0  0  0  0  0  0  0  0  0  0  0
   -1.0783    0.4525   -0.0273 C   0  0  0  0  0  0  0  0  0  0  0  0
   -2.1998    1.0295   -0.5974 O   0  0  0  0  0  0  0  0  0  0  0  0
   -1.2334   -0.7369    0.8751 C   0  0  0  0  0  0  0  0  0  0  0  0
   -0.6805   -0.9003   -0.4746 C   0  0  0  0  0  0  0  0  0  0  0  0
    1.6497   -0.9799    1.1315 H   0  0  0  0  0  0  0  0  0  0  0  0
    2.7687   -0.5144   -0.2650 H   0  0  0  0  0  0  0  0  0  0  0  0
    2.0642    1.7454    0.5285 H   0  0  0  0  0  0  0  0  0  0  0  0
   -0.1685    2.4174    0.3761 H   0  0  0  0  0  0  0  0  0  0  0  0
   -1.9228    1.5085   -1.4162 H   0  0  0  0  0  0  0  0  0  0  0  0
   -0.6155   -0.7090    1.7842 H   0  0  0  0  0  0  0  0  0  0  0  0
   -2.2667   -1.1214    1.0650 H   0  0  0  0  0  0  0  0  0  0  0  0
   -1.3558   -1.3650   -1.2391 H   0  0  0  0  0  0  0  0  0  0  0  0
  1  2  2  0
  2  3  1  0
  3  4  1  0
  4  5  2  0
  5  6  1  0
  6  7  1  0
  6  8  1  0
  8  9  1  0
  9  2  1  0
  9  6  1  0
  3 10  1  0
  3 11  1  0
  4 12  1  0
  5 13  1  0
  7 14  1  0
  8 15  1  0
  8 16  1  0
  9 17  1  0
M  END
