
     RDKit          3D

 19 20  0  0  0  0  0  0  0  0999 V2000
   -1.5759   -2.2910   -0.1805 O   0  0  0  0  0  0  0  0  0  0  0  0
   -1.1825   -1.1762   -0.4441 C   0  0  0  0  0  0  0  0  0  0  0  0
   -1.6438    0.2271   -0.5352 C   0  0  0  0  0  0  0  0  0  0  0  0
   -2.3866    0.7042    0.5150 O   0  0  0  0  0  0  0  0  0  0  0  0
   -0.2349    0.7270   -0.6468 C   0  0  0  0  0  0  0  0  0  0  0  0
    0.4112    1.2002    0.6200 C   0  0  0  0  0  0  0  0  0  0  0  0
    1.6612    0.3331    0.6772 C   0  0  0  0  0  0  0  0  0  0  0  0
    1.2347   -1.0298    0.1496 C   0  0  0  0  0  0  0  0  0  0  0  0
    0.1769   -0.6935   -0.8573 C   0  0  0  0  0  0  0  0  0  0  0  0
   -2.2143    0.3668   -1.4946 H   0  0  0  0  0  0  0  0  0  0  0  0
   -2.6191   -0.0588    1.1243 H   0  0  0  0  0  0  0  0  0  0  0  0
   -0.0544    1.4225   -1.4899 H   0  0  0  0  0  0  0  0  0  0  0  0
    0.7882    2.2506    0.4834 H   0  0  0  0  0  0  0  0  0  0  0  0
   -0.2094    1.1114    1.5113 H   0  0  0  0  0  0  0  0  0  0  0  0
    2.4929    0.7581    0.0868 H   0  0  0  0  0  0  0  0  0  0  0  0
    1.9756    0.2371    1.7279 H   0  0  0  0  0  0  0  0  0  0  0  0
    0.8651   -1.6421    0.9961 H   0  0  0  0  0  0  0  0  0  0  0  0
    2.0941   -1.5611   -0.3252 H   0  0  0  0  0  0  0  0  0  0  0  0
    0.4211   -0.8855   -1.9180 H   0  0  0  0  0  0  0  0  0  0  0  0
  1  2  2  0
  2  3  1  0
  3  4  1  0
  3  5  1  0
  5  6  1  0
  6  7  1  0
  7  8  1  0
  8  9  1  0
  9  2  1  0
  9  5  1  0
  3 10  1  0
  4 11  1  0
  5 12  1  0
  6 13  1  0
  6 14  1  0
  7 15  1  0
  7 16  1  0
  8 17  1  0
  8 18  1  0
  9 19  1  0
M  END
