
     RDKit          3D

 17 18  0  0  0  0  0  0  0  0999 V2000
    0.7323    2.1621    1.2906 O   0  0  0  0  0  0  0  0  0  0  0  0
   -0.0087    1.3010    0.7792 C   0  0  0  0  0  0  0  0  0  0  0  0
   -1.2493    0.9072    1.2473 O   0  0  0  0  0  0  0  0  0  0  0  0
   -1.4739   -0.4321    0.9003 C   0  0  0  0  0  0  0  0  0  0  0  0
   -1.8872   -0.8690   -0.4256 C   0  0  0  0  0  0  0  0  0  0  0  0
   -0.4392   -0.8022   -0.1096 C   0  0  0  0  0  0  0  0  0  0  0  0
    0.2466    0.5047   -0.4260 C   0  0  0  0  0  0  0  0  0  0  0  0
    1.6986    0.3107   -0.7369 C   0  0  0  0  0  0  0  0  0  0  0  0
    2.3974   -0.3313    0.2569 O   0  0  0  0  0  0  0  0  0  0  0  0
   -1.6864   -1.0870    1.7703 H   0  0  0  0  0  0  0  0  0  0  0  0
   -2.2192   -0.1990   -1.2337 H   0  0  0  0  0  0  0  0  0  0  0  0
   -2.3586   -1.8792   -0.4925 H   0  0  0  0  0  0  0  0  0  0  0  0
    0.1736   -1.7062    0.0022 H   0  0  0  0  0  0  0  0  0  0  0  0
   -0.2174    1.0253   -1.2851 H   0  0  0  0  0  0  0  0  0  0  0  0
    1.7631   -0.3144   -1.6512 H   0  0  0  0  0  0  0  0  0  0  0  0
    2.1227    1.2981   -1.0102 H   0  0  0  0  0  0  0  0  0  0  0  0
    2.4055    0.1114    1.1241 H   0  0  0  0  0  0  0  0  0  0  0  0
  1  2  2  0
  2  3  1  0
  3  4  1  0
  4  5  1  0
  5  6  1  0
  6  7  1  0
  7  8  1  0
  8  9  1  0
  7  2  1  0
  6  4  1  0
  4 10  1  0
  5 11  1  0
  5 12  1  0
  6 13  1  0
  7 14  1  0
  8 15  1  0
  8 16  1  0
  9 17  1  0
M  END
