
     RDKit          3D

 17 18  0  0  0  0  0  0  0  0999 V2000
    3.2545    0.3336   -1.1426 O   0  0  0  0  0  0  0  0  0  0  0  0
    2.1005    0.2668   -0.7106 C   0  0  0  0  0  0  0  0  0  0  0  0
    1.8116   -0.5245    0.4767 C   0  0  0  0  0  0  0  0  0  0  0  0
    0.5921   -0.6152    0.9576 C   0  0  0  0  0  0  0  0  0  0  0  0
   -0.5081    0.0833    0.2997 C   0  0  0  0  0  0  0  0  0  0  0  0
   -1.3896   -0.7703   -0.6649 C   0  0  0  0  0  0  0  0  0  0  0  0
   -1.9208   -0.2053    0.5717 C   0  0  0  0  0  0  0  0  0  0  0  0
   -0.0268    1.3317   -0.3471 C   0  0  0  0  0  0  0  0  0  0  0  0
    0.9887    0.9169   -1.2898 O   0  0  0  0  0  0  0  0  0  0  0  0
    2.6288   -1.0579    0.9829 H   0  0  0  0  0  0  0  0  0  0  0  0
    0.4507   -1.2327    1.8627 H   0  0  0  0  0  0  0  0  0  0  0  0
   -1.0491   -1.8199   -0.7601 H   0  0  0  0  0  0  0  0  0  0  0  0
   -1.7057   -0.3290   -1.6087 H   0  0  0  0  0  0  0  0  0  0  0  0
   -2.6718    0.6029    0.5276 H   0  0  0  0  0  0  0  0  0  0  0  0
   -2.1092   -0.8908    1.4491 H   0  0  0  0  0  0  0  0  0  0  0  0
    0.3938    2.0752    0.3256 H   0  0  0  0  0  0  0  0  0  0  0  0
   -0.8394    1.8353   -0.9299 H   0  0  0  0  0  0  0  0  0  0  0  0
  1  2  2  0
  2  3  1  0
  3  4  2  0
  4  5  1  0
  5  6  1  0
  6  7  1  0
  5  8  1  0
  8  9  1  0
  9  2  1  0
  7  5  1  0
  3 10  1  0
  4 11  1  0
  6 12  1  0
  6 13  1  0
  7 14  1  0
  7 15  1  0
  8 16  1  0
  8 17  1  0
M  END
