
     RDKit          3D

 17 19  0  0  0  0  0  0  0  0999 V2000
    3.6199    0.1232    0.1743 O   0  0  0  0  0  0  0  0  0  0  0  0
    2.4386   -0.0798   -0.0197 C   0  0  0  0  0  0  0  0  0  0  0  0
    1.4640   -1.0903    0.4668 C   0  0  0  0  0  0  0  0  0  0  0  0
    0.3922   -0.3447   -0.2683 C   0  0  0  0  0  0  0  0  0  0  0  0
   -0.7738    0.2378    0.4842 C   0  0  0  0  0  0  0  0  0  0  0  0
   -1.8083    0.9681   -0.2973 C   0  0  0  0  0  0  0  0  0  0  0  0
   -2.0943   -0.4083    0.2675 C   0  0  0  0  0  0  0  0  0  0  0  0
    0.5391   -0.1659   -1.6137 O   0  0  0  0  0  0  0  0  0  0  0  0
    1.4088    0.5754   -0.8267 C   0  0  0  0  0  0  0  0  0  0  0  0
    1.3565   -1.1468    1.5517 H   0  0  0  0  0  0  0  0  0  0  0  0
    1.6667   -2.0619   -0.0519 H   0  0  0  0  0  0  0  0  0  0  0  0
   -0.5289    0.5471    1.5185 H   0  0  0  0  0  0  0  0  0  0  0  0
   -1.6929    1.0892   -1.3902 H   0  0  0  0  0  0  0  0  0  0  0  0
   -2.3329    1.8394    0.1724 H   0  0  0  0  0  0  0  0  0  0  0  0
   -2.7914   -0.4870    1.1353 H   0  0  0  0  0  0  0  0  0  0  0  0
   -2.1479   -1.2555   -0.4594 H   0  0  0  0  0  0  0  0  0  0  0  0
    1.2847    1.6601   -0.8647 H   0  0  0  0  0  0  0  0  0  0  0  0
  1  2  2  0
  2  3  1  0
  3  4  1  0
  4  5  1  0
  5  6  1  0
  6  7  1  0
  4  8  1  0
  8  9  1  0
  9  2  1  0
  9  4  1  0
  7  5  1  0
  3 10  1  0
  3 11  1  0
  5 12  1  0
  6 13  1  0
  6 14  1  0
  7 15  1  0
  7 16  1  0
  9 17  1  0
M  END
