
     RDKit          3D

 16 17  0  0  0  0  0  0  0  0999 V2000
    0.6524    0.3058    2.4939 O   0  0  0  0  0  0  0  0  0  0  0  0
    0.3208    0.0967    1.3626 C   0  0  0  0  0  0  0  0  0  0  0  0
   -0.9769    0.3257    0.7431 C   0  0  0  0  0  0  0  0  0  0  0  0
   -0.5614    1.1059   -0.5134 C   0  0  0  0  0  0  0  0  0  0  0  0
    0.1324   -0.2192   -0.8602 C   0  0  0  0  0  0  0  0  0  0  0  0
   -1.1198   -0.8454   -0.2447 C   0  0  0  0  0  0  0  0  0  0  0  0
    1.1361   -0.4616    0.2455 C   0  0  0  0  0  0  0  0  0  0  0  0
    2.3301    0.1711    0.0629 O   0  0  0  0  0  0  0  0  0  0  0  0
   -1.8278    0.6404    1.2693 H   0  0  0  0  0  0  0  0  0  0  0  0
    0.1036    1.9423   -0.3267 H   0  0  0  0  0  0  0  0  0  0  0  0
   -1.4235    1.2473   -1.1657 H   0  0  0  0  0  0  0  0  0  0  0  0
    0.3684   -0.4217   -1.8631 H   0  0  0  0  0  0  0  0  0  0  0  0
   -0.8607   -1.8204    0.1735 H   0  0  0  0  0  0  0  0  0  0  0  0
   -2.0091   -0.7684   -0.8685 H   0  0  0  0  0  0  0  0  0  0  0  0
    1.1962   -1.5536    0.3948 H   0  0  0  0  0  0  0  0  0  0  0  0
    2.5394    0.2551   -0.9034 H   0  0  0  0  0  0  0  0  0  0  0  0
  1  2  2  0
  2  3  1  0
  3  4  1  0
  4  5  1  0
  5  6  1  0
  5  7  1  0
  7  8  1  0
  7  2  1  0
  6  3  1  0
  3  9  1  0
  4 10  1  0
  4 11  1  0
  5 12  1  0
  6 13  1  0
  6 14  1  0
  7 15  1  0
  8 16  1  0
M  END
