
     RDKit          3D

 19 21  0  0  0  0  0  0  0  0999 V2000
   -3.1768   -0.4808    0.3398 O   0  0  0  0  0  0  0  0  0  0  0  0
   -1.9948   -0.2916    0.2984 C   0  0  0  0  0  0  0  0  0  0  0  0
   -0.9270   -1.2914    0.4681 C   0  0  0  0  0  0  0  0  0  0  0  0
    0.0668   -0.8595   -0.5951 C   0  0  0  0  0  0  0  0  0  0  0  0
   -0.1985    0.5805   -0.8916 C   0  0  0  0  0  0  0  0  0  0  0  0
   -1.3076    0.9915    0.0668 C   0  0  0  0  0  0  0  0  0  0  0  0
    1.1871    0.9123   -0.4577 C   0  0  0  0  0  0  0  0  0  0  0  0
    1.7131    0.5284    0.8588 C   0  0  0  0  0  0  0  0  0  0  0  0
    1.4481   -0.5801   -0.0802 C   0  0  0  0  0  0  0  0  0  0  0  0
   -1.2673   -2.3333    0.3301 H   0  0  0  0  0  0  0  0  0  0  0  0
   -0.4180   -1.1618    1.4638 H   0  0  0  0  0  0  0  0  0  0  0  0
    0.0469   -1.4578   -1.5204 H   0  0  0  0  0  0  0  0  0  0  0  0
   -0.3864    0.8420   -1.9481 H   0  0  0  0  0  0  0  0  0  0  0  0
   -1.9560    1.7734   -0.3714 H   0  0  0  0  0  0  0  0  0  0  0  0
   -0.8596    1.3026    1.0424 H   0  0  0  0  0  0  0  0  0  0  0  0
    1.8835    1.2919   -1.2182 H   0  0  0  0  0  0  0  0  0  0  0  0
    1.1055    0.5709    1.7838 H   0  0  0  0  0  0  0  0  0  0  0  0
    2.7852    0.7532    1.0384 H   0  0  0  0  0  0  0  0  0  0  0  0
    2.2557   -1.0902   -0.6078 H   0  0  0  0  0  0  0  0  0  0  0  0
  1  2  2  0
  2  3  1  0
  3  4  1  0
  4  5  1  0
  5  6  1  0
  5  7  1  0
  7  8  1  0
  8  9  1  0
  6  2  1  0
  9  7  1  0
  9  4  1  0
  3 10  1  0
  3 11  1  0
  4 12  1  0
  5 13  1  0
  6 14  1  0
  6 15  1  0
  7 16  1  0
  8 17  1  0
  8 18  1  0
  9 19  1  0
M  END
