
     RDKit          3D

 19 20  0  0  0  0  0  0  0  0999 V2000
    2.1897   -1.0061    1.3587 O   0  0  0  0  0  0  0  0  0  0  0  0
    1.6784   -0.6035    0.3515 C   0  0  0  0  0  0  0  0  0  0  0  0
    1.9166    0.5914   -0.5245 C   0  0  0  0  0  0  0  0  0  0  0  0
    0.4104    0.5268   -0.8031 C   0  0  0  0  0  0  0  0  0  0  0  0
   -0.3517    1.0780    0.3517 C   0  0  0  0  0  0  0  0  0  0  0  0
   -1.5744    0.2817    0.7065 C   0  0  0  0  0  0  0  0  0  0  0  0
   -1.5801   -1.1113    0.2117 C   0  0  0  0  0  0  0  0  0  0  0  0
   -0.4360   -1.6592   -0.1994 O   0  0  0  0  0  0  0  0  0  0  0  0
    0.5945   -0.9453   -0.6206 C   0  0  0  0  0  0  0  0  0  0  0  0
    2.2276    1.4976    0.0137 H   0  0  0  0  0  0  0  0  0  0  0  0
    2.5393    0.2996   -1.3889 H   0  0  0  0  0  0  0  0  0  0  0  0
    0.1303    0.8703   -1.8079 H   0  0  0  0  0  0  0  0  0  0  0  0
   -0.6205    2.1441    0.0888 H   0  0  0  0  0  0  0  0  0  0  0  0
    0.3016    1.1841    1.2586 H   0  0  0  0  0  0  0  0  0  0  0  0
   -1.7092    0.3317    1.8176 H   0  0  0  0  0  0  0  0  0  0  0  0
   -2.4592    0.8565    0.3004 H   0  0  0  0  0  0  0  0  0  0  0  0
   -2.3511   -1.2034   -0.6093 H   0  0  0  0  0  0  0  0  0  0  0  0
   -1.9998   -1.7637    1.0366 H   0  0  0  0  0  0  0  0  0  0  0  0
    1.0938   -1.3693   -1.5420 H   0  0  0  0  0  0  0  0  0  0  0  0
  1  2  2  0
  2  3  1  0
  3  4  1  0
  4  5  1  0
  5  6  1  0
  6  7  1  0
  7  8  1  0
  8  9  1  0
  9  2  1  0
  9  4  1  0
  3 10  1  0
  3 11  1  0
  4 12  1  0
  5 13  1  0
  5 14  1  0
  6 15  1  0
  6 16  1  0
  7 17  1  0
  7 18  1  0
  9 19  1  0
M  END
