
     RDKit          3D

 17 18  0  0  0  0  0  0  0  0999 V2000
    0.1094   -0.5664    2.5327 O   0  0  0  0  0  0  0  0  0  0  0  0
   -0.0288   -0.3474    1.3702 C   0  0  0  0  0  0  0  0  0  0  0  0
   -1.3077   -0.5816    0.6851 C   0  0  0  0  0  0  0  0  0  0  0  0
   -1.0416   -0.2013   -0.7800 C   0  0  0  0  0  0  0  0  0  0  0  0
   -0.5123    1.2039   -0.8684 C   0  0  0  0  0  0  0  0  0  0  0  0
    0.5410    1.4377   -0.0790 C   0  0  0  0  0  0  0  0  0  0  0  0
    1.0802    0.1725    0.5531 C   0  0  0  0  0  0  0  0  0  0  0  0
    1.2070   -0.7970   -0.6250 C   0  0  0  0  0  0  0  0  0  0  0  0
   -0.0033   -1.0210   -1.2145 O   0  0  0  0  0  0  0  0  0  0  0  0
   -1.5772   -1.6733    0.6388 H   0  0  0  0  0  0  0  0  0  0  0  0
   -2.1575   -0.0092    1.1008 H   0  0  0  0  0  0  0  0  0  0  0  0
   -1.9238   -0.3310   -1.3958 H   0  0  0  0  0  0  0  0  0  0  0  0
   -0.9479    1.9509   -1.5128 H   0  0  0  0  0  0  0  0  0  0  0  0
    0.9724    2.4135    0.0994 H   0  0  0  0  0  0  0  0  0  0  0  0
    2.0100    0.3311    1.0699 H   0  0  0  0  0  0  0  0  0  0  0  0
    1.8817   -0.2804   -1.3575 H   0  0  0  0  0  0  0  0  0  0  0  0
    1.6982   -1.7010   -0.2171 H   0  0  0  0  0  0  0  0  0  0  0  0
  1  2  2  0
  2  3  1  0
  3  4  1  0
  4  5  1  0
  5  6  2  0
  6  7  1  0
  7  8  1  0
  8  9  1  0
  7  2  1  0
  9  4  1  0
  3 10  1  0
  3 11  1  0
  4 12  1  0
  5 13  1  0
  6 14  1  0
  7 15  1  0
  8 16  1  0
  8 17  1  0
M  END
