
     RDKit          3D

 10 10  0  0  0  0  0  0  0  0999 V2000
    0.1880    2.1922    0.6979 O   0  0  0  0  0  0  0  0  0  0  0  0
    0.0220    1.0789    0.1785 C   0  0  0  0  0  0  0  0  0  0  0  0
   -0.6910    0.6549   -0.9551 O   0  0  0  0  0  0  0  0  0  0  0  0
   -0.9759   -0.5379   -0.2254 C   0  0  0  0  0  0  0  0  0  0  0  0
    0.4048   -0.3526    0.3696 C   0  0  0  0  0  0  0  0  0  0  0  0
    1.4618   -0.6945   -0.4391 O   0  0  0  0  0  0  0  0  0  0  0  0
   -1.7332   -0.3600    0.5621 H   0  0  0  0  0  0  0  0  0  0  0  0
   -1.1119   -1.4339   -0.8377 H   0  0  0  0  0  0  0  0  0  0  0  0
    0.5089   -0.6592    1.4292 H   0  0  0  0  0  0  0  0  0  0  0  0
    1.9264    0.1121   -0.7800 H   0  0  0  0  0  0  0  0  0  0  0  0
  1  2  2  0
  2  3  1  0
  3  4  1  0
  4  5  1  0
  5  6  1  0
  5  2  1  0
  4  7  1  0
  4  8  1  0
  5  9  1  0
  6 10  1  0
M  END
