
     RDKit          3D

 19 20  0  0  0  0  0  0  0  0999 V2000
    3.0282   -1.3723   -0.3113 O   0  0  0  0  0  0  0  0  0  0  0  0
    2.1199   -0.6065   -0.1681 C   0  0  0  0  0  0  0  0  0  0  0  0
    1.9106    0.7731   -0.7408 C   0  0  0  0  0  0  0  0  0  0  0  0
    0.5746    0.7550   -1.0456 O   0  0  0  0  0  0  0  0  0  0  0  0
   -0.1063    0.0520   -0.0931 C   0  0  0  0  0  0  0  0  0  0  0  0
   -1.2771   -0.6856   -0.6972 C   0  0  0  0  0  0  0  0  0  0  0  0
   -2.2213    0.1836    0.1234 C   0  0  0  0  0  0  0  0  0  0  0  0
   -1.0130    0.8069    0.8220 C   0  0  0  0  0  0  0  0  0  0  0  0
    0.8738   -0.8094    0.6595 C   0  0  0  0  0  0  0  0  0  0  0  0
    2.5736    0.8790   -1.6054 H   0  0  0  0  0  0  0  0  0  0  0  0
    2.0747    1.5545    0.0376 H   0  0  0  0  0  0  0  0  0  0  0  0
   -1.3396   -1.7565   -0.4999 H   0  0  0  0  0  0  0  0  0  0  0  0
   -1.4480   -0.4785   -1.7712 H   0  0  0  0  0  0  0  0  0  0  0  0
   -2.7996   -0.4430    0.8322 H   0  0  0  0  0  0  0  0  0  0  0  0
   -2.8011    0.9179   -0.4563 H   0  0  0  0  0  0  0  0  0  0  0  0
   -0.9173    1.8987    0.6568 H   0  0  0  0  0  0  0  0  0  0  0  0
   -0.9139    0.5206    1.8849 H   0  0  0  0  0  0  0  0  0  0  0  0
    0.5900   -1.8577    0.7350 H   0  0  0  0  0  0  0  0  0  0  0  0
    1.0918   -0.3319    1.6376 H   0  0  0  0  0  0  0  0  0  0  0  0
  1  2  2  0
  2  3  1  0
  3  4  1  0
  4  5  1  0
  5  6  1  0
  6  7  1  0
  7  8  1  0
  5  9  1  0
  9  2  1  0
  8  5  1  0
  3 10  1  0
  3 11  1  0
  6 12  1  0
  6 13  1  0
  7 14  1  0
  7 15  1  0
  8 16  1  0
  8 17  1  0
  9 18  1  0
  9 19  1  0
M  END
