
     RDKit          3D

 17 19  0  0  0  0  0  0  0  0999 V2000
    1.1187    0.6085    2.4383 O   0  0  0  0  0  0  0  0  0  0  0  0
    0.7505    0.3824    1.3339 C   0  0  0  0  0  0  0  0  0  0  0  0
    0.4402   -0.9046    0.6012 C   0  0  0  0  0  0  0  0  0  0  0  0
    1.3238   -0.6102   -0.6148 C   0  0  0  0  0  0  0  0  0  0  0  0
    1.2511    0.7606   -0.8155 O   0  0  0  0  0  0  0  0  0  0  0  0
    0.4290    1.2982    0.1689 C   0  0  0  0  0  0  0  0  0  0  0  0
   -0.9939    0.8802   -0.0894 C   0  0  0  0  0  0  0  0  0  0  0  0
   -1.3528   -0.1237   -1.0933 C   0  0  0  0  0  0  0  0  0  0  0  0
   -0.9875   -0.6552    0.2313 C   0  0  0  0  0  0  0  0  0  0  0  0
    0.6755   -1.7897    1.1344 H   0  0  0  0  0  0  0  0  0  0  0  0
    2.3711   -0.8679   -0.2837 H   0  0  0  0  0  0  0  0  0  0  0  0
    1.0775   -1.2187   -1.4787 H   0  0  0  0  0  0  0  0  0  0  0  0
    0.5840    2.3353    0.3902 H   0  0  0  0  0  0  0  0  0  0  0  0
   -1.7982    1.4392    0.4304 H   0  0  0  0  0  0  0  0  0  0  0  0
   -0.7123   -0.3682   -1.9559 H   0  0  0  0  0  0  0  0  0  0  0  0
   -2.4397   -0.1695   -1.3544 H   0  0  0  0  0  0  0  0  0  0  0  0
   -1.7368   -0.9968    0.9572 H   0  0  0  0  0  0  0  0  0  0  0  0
  1  2  2  0
  2  3  1  0
  3  4  1  0
  4  5  1  0
  5  6  1  0
  6  7  1  0
  7  8  1  0
  8  9  1  0
  6  2  1  0
  9  7  1  0
  9  3  1  0
  3 10  1  0
  4 11  1  0
  4 12  1  0
  6 13  1  0
  7 14  1  0
  8 15  1  0
  8 16  1  0
  9 17  1  0
M  END
