
     RDKit          3D

 19 19  0  0  0  0  0  0  0  0999 V2000
   -0.6105    1.7841    1.5143 O   0  0  0  0  0  0  0  0  0  0  0  0
   -0.4322    1.2544    0.4335 C   0  0  0  0  0  0  0  0  0  0  0  0
   -1.6131    0.4493    0.0121 C   0  0  0  0  0  0  0  0  0  0  0  0
   -1.2259   -1.0077    0.2127 C   0  0  0  0  0  0  0  0  0  0  0  0
   -0.1327   -1.3236   -0.7728 C   0  0  0  0  0  0  0  0  0  0  0  0
    1.0039   -1.6824   -0.0583 O   0  0  0  0  0  0  0  0  0  0  0  0
    1.7754   -0.5423    0.2673 C   0  0  0  0  0  0  0  0  0  0  0  0
    1.5395    0.4419   -0.6557 O   0  0  0  0  0  0  0  0  0  0  0  0
    0.8763    1.5403   -0.1646 C   0  0  0  0  0  0  0  0  0  0  0  0
   -2.4975    0.6484    0.6589 H   0  0  0  0  0  0  0  0  0  0  0  0
   -1.8742    0.6719   -1.0400 H   0  0  0  0  0  0  0  0  0  0  0  0
   -2.0954   -1.6849    0.1192 H   0  0  0  0  0  0  0  0  0  0  0  0
   -0.8719   -1.0990    1.2613 H   0  0  0  0  0  0  0  0  0  0  0  0
   -0.4505   -2.1777   -1.3836 H   0  0  0  0  0  0  0  0  0  0  0  0
    0.0643   -0.4820   -1.4800 H   0  0  0  0  0  0  0  0  0  0  0  0
    1.5354   -0.2520    1.3102 H   0  0  0  0  0  0  0  0  0  0  0  0
    2.8346   -0.9074    0.2606 H   0  0  0  0  0  0  0  0  0  0  0  0
    1.4811    2.1437    0.5451 H   0  0  0  0  0  0  0  0  0  0  0  0
    0.6936    2.2251   -1.0404 H   0  0  0  0  0  0  0  0  0  0  0  0
  1  2  2  0
  2  3  1  0
  3  4  1  0
  4  5  1  0
  5  6  1  0
  6  7  1  0
  7  8  1  0
  8  9  1  0
  9  2  1  0
  3 10  1  0
  3 11  1  0
  4 12  1  0
  4 13  1  0
  5 14  1  0
  5 15  1  0
  7 16  1  0
  7 17  1  0
  9 18  1  0
  9 19  1  0
M  END
