
     RDKit          3D

 19 20  0  0  0  0  0  0  0  0999 V2000
   -0.3093    0.8103    2.3811 O   0  0  0  0  0  0  0  0  0  0  0  0
   -0.1669    0.8675    1.1816 C   0  0  0  0  0  0  0  0  0  0  0  0
    1.0018    0.8892    0.2858 C   0  0  0  0  0  0  0  0  0  0  0  0
    1.6164   -0.4500    0.0431 C   0  0  0  0  0  0  0  0  0  0  0  0
    0.6555   -1.5596    0.0472 C   0  0  0  0  0  0  0  0  0  0  0  0
   -0.6626   -1.5035    0.0810 C   0  0  0  0  0  0  0  0  0  0  0  0
   -1.6402   -0.4361   -0.2405 C   0  0  0  0  0  0  0  0  0  0  0  0
   -1.0598    0.9442    0.0013 C   0  0  0  0  0  0  0  0  0  0  0  0
    0.1178    1.2292   -0.8909 C   0  0  0  0  0  0  0  0  0  0  0  0
    1.7766    1.6470    0.5337 H   0  0  0  0  0  0  0  0  0  0  0  0
    2.4067   -0.6006    0.8143 H   0  0  0  0  0  0  0  0  0  0  0  0
    2.1712   -0.4364   -0.9384 H   0  0  0  0  0  0  0  0  0  0  0  0
    1.0973   -2.5423    0.0185 H   0  0  0  0  0  0  0  0  0  0  0  0
   -1.1320   -2.4241    0.4108 H   0  0  0  0  0  0  0  0  0  0  0  0
   -2.0119   -0.5557   -1.2788 H   0  0  0  0  0  0  0  0  0  0  0  0
   -2.5029   -0.5396    0.4502 H   0  0  0  0  0  0  0  0  0  0  0  0
   -1.8111    1.7340    0.0244 H   0  0  0  0  0  0  0  0  0  0  0  0
    0.2234    2.3144   -1.1424 H   0  0  0  0  0  0  0  0  0  0  0  0
    0.2299    0.6119   -1.7818 H   0  0  0  0  0  0  0  0  0  0  0  0
  1  2  2  0
  2  3  1  0
  3  4  1  0
  4  5  1  0
  5  6  2  0
  6  7  1  0
  7  8  1  0
  8  9  1  0
  8  2  1  0
  9  3  1  0
  3 10  1  0
  4 11  1  0
  4 12  1  0
  5 13  1  0
  6 14  1  0
  7 15  1  0
  7 16  1  0
  8 17  1  0
  9 18  1  0
  9 19  1  0
M  END
