
     RDKit          3D

 15 17  0  0  0  0  0  0  0  0999 V2000
    2.8878    1.4926   -0.9656 O   0  0  0  0  0  0  0  0  0  0  0  0
    1.8220    0.9395   -0.6240 C   0  0  0  0  0  0  0  0  0  0  0  0
    0.6521    0.9637   -1.3294 O   0  0  0  0  0  0  0  0  0  0  0  0
   -0.4177    0.4714   -0.5469 C   0  0  0  0  0  0  0  0  0  0  0  0
   -0.7479   -0.9628   -0.7745 C   0  0  0  0  0  0  0  0  0  0  0  0
   -0.4033   -1.3257    0.6642 C   0  0  0  0  0  0  0  0  0  0  0  0
    0.2415    0.0326    0.7887 C   0  0  0  0  0  0  0  0  0  0  0  0
   -0.7108    1.1828    0.7083 C   0  0  0  0  0  0  0  0  0  0  0  0
    1.6052    0.1982    0.5210 O   0  0  0  0  0  0  0  0  0  0  0  0
   -1.8229   -1.0945   -1.0357 H   0  0  0  0  0  0  0  0  0  0  0  0
   -0.0438   -1.5155   -1.4435 H   0  0  0  0  0  0  0  0  0  0  0  0
   -1.3485   -1.3355    1.2550 H   0  0  0  0  0  0  0  0  0  0  0  0
    0.2428   -2.1941    0.7861 H   0  0  0  0  0  0  0  0  0  0  0  0
   -1.7076    0.9754    1.1638 H   0  0  0  0  0  0  0  0  0  0  0  0
   -0.2487    2.1719    0.8325 H   0  0  0  0  0  0  0  0  0  0  0  0
  1  2  2  0
  2  3  1  0
  3  4  1  0
  4  5  1  0
  5  6  1  0
  6  7  1  0
  7  8  1  0
  7  9  1  0
  9  2  1  0
  7  4  1  0
  8  4  1  0
  5 10  1  0
  5 11  1  0
  6 12  1  0
  6 13  1  0
  8 14  1  0
  8 15  1  0
M  END
