
     RDKit          3D

 17 18  0  0  0  0  0  0  0  0999 V2000
   -0.2065   -2.4101    0.1623 O   0  0  0  0  0  0  0  0  0  0  0  0
    0.2166   -1.2376    0.0256 C   0  0  0  0  0  0  0  0  0  0  0  0
    1.6410   -0.9847   -0.2557 C   0  0  0  0  0  0  0  0  0  0  0  0
    2.0543    0.2377   -0.0061 C   0  0  0  0  0  0  0  0  0  0  0  0
    1.2096    1.3260    0.5176 C   0  0  0  0  0  0  0  0  0  0  0  0
   -0.0665    0.9986    0.8032 O   0  0  0  0  0  0  0  0  0  0  0  0
   -0.6372   -0.0299    0.1285 C   0  0  0  0  0  0  0  0  0  0  0  0
   -1.6606    0.1318   -0.9199 C   0  0  0  0  0  0  0  0  0  0  0  0
   -2.0988   -0.2789    0.4573 C   0  0  0  0  0  0  0  0  0  0  0  0
    2.2824   -1.7741   -0.6427 H   0  0  0  0  0  0  0  0  0  0  0  0
    3.0956    0.4737   -0.1971 H   0  0  0  0  0  0  0  0  0  0  0  0
    1.2611    2.1741   -0.2083 H   0  0  0  0  0  0  0  0  0  0  0  0
    1.6994    1.6827    1.4714 H   0  0  0  0  0  0  0  0  0  0  0  0
   -1.9177    1.1366   -1.3122 H   0  0  0  0  0  0  0  0  0  0  0  0
   -1.7642   -0.6656   -1.6815 H   0  0  0  0  0  0  0  0  0  0  0  0
   -2.6591    0.5104    0.9993 H   0  0  0  0  0  0  0  0  0  0  0  0
   -2.4494   -1.2907    0.6582 H   0  0  0  0  0  0  0  0  0  0  0  0
  1  2  2  0
  2  3  1  0
  3  4  2  0
  4  5  1  0
  5  6  1  0
  6  7  1  0
  7  8  1  0
  8  9  1  0
  7  2  1  0
  9  7  1  0
  3 10  1  0
  4 11  1  0
  5 12  1  0
  5 13  1  0
  8 14  1  0
  8 15  1  0
  9 16  1  0
  9 17  1  0
M  END
