
     RDKit          3D

 17 19  0  0  0  0  0  0  0  0999 V2000
   -0.2080   -0.8775    2.3788 O   0  0  0  0  0  0  0  0  0  0  0  0
   -0.3526   -0.4974    1.2373 C   0  0  0  0  0  0  0  0  0  0  0  0
   -1.6417   -0.6856    0.4809 C   0  0  0  0  0  0  0  0  0  0  0  0
   -2.5718    0.3165    0.4690 O   0  0  0  0  0  0  0  0  0  0  0  0
   -1.6450    0.4406   -0.5529 C   0  0  0  0  0  0  0  0  0  0  0  0
   -0.3721    1.2249   -0.3092 C   0  0  0  0  0  0  0  0  0  0  0  0
    0.5213    0.1854    0.2882 C   0  0  0  0  0  0  0  0  0  0  0  0
    1.2362   -0.7671   -0.6836 C   0  0  0  0  0  0  0  0  0  0  0  0
    1.9538    0.1763    0.2692 C   0  0  0  0  0  0  0  0  0  0  0  0
   -1.8248   -1.6708    0.0388 H   0  0  0  0  0  0  0  0  0  0  0  0
   -1.9202    0.2260   -1.5820 H   0  0  0  0  0  0  0  0  0  0  0  0
    0.0256    1.7034   -1.2098 H   0  0  0  0  0  0  0  0  0  0  0  0
   -0.5897    1.9744    0.5082 H   0  0  0  0  0  0  0  0  0  0  0  0
    1.1898   -0.5322   -1.7531 H   0  0  0  0  0  0  0  0  0  0  0  0
    1.2244   -1.8487   -0.4499 H   0  0  0  0  0  0  0  0  0  0  0  0
    2.4942    0.9835   -0.2464 H   0  0  0  0  0  0  0  0  0  0  0  0
    2.4806   -0.3516    1.1165 H   0  0  0  0  0  0  0  0  0  0  0  0
  1  2  2  0
  2  3  1  0
  3  4  1  0
  4  5  1  0
  5  6  1  0
  6  7  1  0
  7  8  1  0
  8  9  1  0
  7  2  1  0
  5  3  1  0
  9  7  1  0
  3 10  1  0
  5 11  1  0
  6 12  1  0
  6 13  1  0
  8 14  1  0
  8 15  1  0
  9 16  1  0
  9 17  1  0
M  END
