
     RDKit          3D

 17 19  0  0  0  0  0  0  0  0999 V2000
    3.1948   -1.5326   -0.4425 O   0  0  0  0  0  0  0  0  0  0  0  0
    2.1627   -0.8461   -0.3367 C   0  0  0  0  0  0  0  0  0  0  0  0
    0.9444   -0.8427   -0.9874 O   0  0  0  0  0  0  0  0  0  0  0  0
    0.4315    0.2668   -0.2675 C   0  0  0  0  0  0  0  0  0  0  0  0
   -0.9007    0.1843    0.3977 C   0  0  0  0  0  0  0  0  0  0  0  0
   -2.0618   -0.0957   -0.5522 C   0  0  0  0  0  0  0  0  0  0  0  0
   -1.5925   -1.1329    0.4277 C   0  0  0  0  0  0  0  0  0  0  0  0
    1.2146    1.5143   -0.1611 C   0  0  0  0  0  0  0  0  0  0  0  0
    1.7043    0.2653    0.4851 C   0  0  0  0  0  0  0  0  0  0  0  0
   -1.0975    0.9483    1.1701 H   0  0  0  0  0  0  0  0  0  0  0  0
   -3.0140    0.4481   -0.3828 H   0  0  0  0  0  0  0  0  0  0  0  0
   -1.8382   -0.2264   -1.6307 H   0  0  0  0  0  0  0  0  0  0  0  0
   -2.3517   -1.3326    1.2389 H   0  0  0  0  0  0  0  0  0  0  0  0
   -1.0245   -1.9912    0.0269 H   0  0  0  0  0  0  0  0  0  0  0  0
    0.8197    2.2735    0.5301 H   0  0  0  0  0  0  0  0  0  0  0  0
    1.6759    1.8822   -1.1041 H   0  0  0  0  0  0  0  0  0  0  0  0
    1.7331    0.2174    1.5887 H   0  0  0  0  0  0  0  0  0  0  0  0
  1  2  2  0
  2  3  1  0
  3  4  1  0
  4  5  1  0
  5  6  1  0
  6  7  1  0
  4  8  1  0
  8  9  1  0
  9  2  1  0
  9  4  1  0
  7  5  1  0
  5 10  1  0
  6 11  1  0
  6 12  1  0
  7 13  1  0
  7 14  1  0
  8 15  1  0
  8 16  1  0
  9 17  1  0
M  END
