
     RDKit          3D

 17 18  0  0  0  0  0  0  0  0999 V2000
    2.0565    1.7097    1.0680 O   0  0  0  0  0  0  0  0  0  0  0  0
    1.2099    1.0944    0.3338 C   0  0  0  0  0  0  0  0  0  0  0  0
    0.0033    1.7440    0.2733 O   0  0  0  0  0  0  0  0  0  0  0  0
   -1.2727    1.2693   -0.0466 C   0  0  0  0  0  0  0  0  0  0  0  0
   -1.1810   -0.1451   -0.5520 C   0  0  0  0  0  0  0  0  0  0  0  0
   -0.4835   -0.9626    0.5130 C   0  0  0  0  0  0  0  0  0  0  0  0
    0.8638   -1.3476   -0.0117 C   0  0  0  0  0  0  0  0  0  0  0  0
    2.0078   -1.1417    0.7025 O   0  0  0  0  0  0  0  0  0  0  0  0
    1.6507   -0.1473   -0.2929 C   0  0  0  0  0  0  0  0  0  0  0  0
   -1.8107    1.8987   -0.7695 H   0  0  0  0  0  0  0  0  0  0  0  0
   -1.8609    1.2164    0.9167 H   0  0  0  0  0  0  0  0  0  0  0  0
   -2.1548   -0.5605   -0.8443 H   0  0  0  0  0  0  0  0  0  0  0  0
   -0.5757   -0.0980   -1.5027 H   0  0  0  0  0  0  0  0  0  0  0  0
   -0.4110   -0.4035    1.4873 H   0  0  0  0  0  0  0  0  0  0  0  0
   -1.1419   -1.8315    0.7245 H   0  0  0  0  0  0  0  0  0  0  0  0
    0.8219   -2.1432   -0.7984 H   0  0  0  0  0  0  0  0  0  0  0  0
    2.2785   -0.1517   -1.2011 H   0  0  0  0  0  0  0  0  0  0  0  0
  1  2  2  0
  2  3  1  0
  3  4  1  0
  4  5  1  0
  5  6  1  0
  6  7  1  0
  7  8  1  0
  8  9  1  0
  9  2  1  0
  9  7  1  0
  4 10  1  0
  4 11  1  0
  5 12  1  0
  5 13  1  0
  6 14  1  0
  6 15  1  0
  7 16  1  0
  9 17  1  0
M  END
