
     RDKit          3D

 15 15  0  0  0  0  0  0  0  0999 V2000
    2.6294    1.5494    0.0951 O   0  0  0  0  0  0  0  0  0  0  0  0
    1.5961    0.8607   -0.1045 C   0  0  0  0  0  0  0  0  0  0  0  0
    0.4079    1.5588   -0.2882 O   0  0  0  0  0  0  0  0  0  0  0  0
   -0.8925    1.2008    0.0733 C   0  0  0  0  0  0  0  0  0  0  0  0
   -1.0307   -0.2281    0.5257 C   0  0  0  0  0  0  0  0  0  0  0  0
   -0.6777   -1.2386   -0.5025 C   0  0  0  0  0  0  0  0  0  0  0  0
    0.7065   -1.5548   -0.3532 O   0  0  0  0  0  0  0  0  0  0  0  0
    1.7008   -0.5951   -0.1311 C   0  0  0  0  0  0  0  0  0  0  0  0
    2.8766   -1.0443    0.0805 O   0  0  0  0  0  0  0  0  0  0  0  0
   -1.1666    1.8368    0.9564 H   0  0  0  0  0  0  0  0  0  0  0  0
   -1.6460    1.4626   -0.7112 H   0  0  0  0  0  0  0  0  0  0  0  0
   -0.3502   -0.3500    1.4063 H   0  0  0  0  0  0  0  0  0  0  0  0
   -2.1007   -0.3747    0.8021 H   0  0  0  0  0  0  0  0  0  0  0  0
   -0.8217   -0.8864   -1.5426 H   0  0  0  0  0  0  0  0  0  0  0  0
   -1.2312   -2.1973   -0.3063 H   0  0  0  0  0  0  0  0  0  0  0  0
  1  2  2  0
  2  3  1  0
  3  4  1  0
  4  5  1  0
  5  6  1  0
  6  7  1  0
  7  8  1  0
  8  9  2  0
  8  2  1  0
  4 10  1  0
  4 11  1  0
  5 12  1  0
  5 13  1  0
  6 14  1  0
  6 15  1  0
M  END
