
     RDKit          3D

 16 17  0  0  0  0  0  0  0  0999 V2000
    1.4318    1.7740    1.2499 O   0  0  0  0  0  0  0  0  0  0  0  0
    1.1262    0.8636    0.4537 C   0  0  0  0  0  0  0  0  0  0  0  0
    1.7990   -0.4370    0.3410 C   0  0  0  0  0  0  0  0  0  0  0  0
    1.0436   -1.3000   -0.3124 C   0  0  0  0  0  0  0  0  0  0  0  0
   -0.2060   -0.6365   -0.6910 C   0  0  0  0  0  0  0  0  0  0  0  0
   -1.2114   -0.4902    0.4558 C   0  0  0  0  0  0  0  0  0  0  0  0
   -1.3298    0.9696    0.0667 C   0  0  0  0  0  0  0  0  0  0  0  0
    0.0467    0.8364   -0.5589 C   0  0  0  0  0  0  0  0  0  0  0  0
    2.7977   -0.6705    0.7435 H   0  0  0  0  0  0  0  0  0  0  0  0
    1.2922   -2.3453   -0.5439 H   0  0  0  0  0  0  0  0  0  0  0  0
   -0.6698   -0.9575   -1.6427 H   0  0  0  0  0  0  0  0  0  0  0  0
   -0.7128   -0.6729    1.4079 H   0  0  0  0  0  0  0  0  0  0  0  0
   -2.1149   -1.0865    0.2350 H   0  0  0  0  0  0  0  0  0  0  0  0
   -1.3741    1.6566    0.9442 H   0  0  0  0  0  0  0  0  0  0  0  0
   -2.1331    1.0907   -0.6753 H   0  0  0  0  0  0  0  0  0  0  0  0
    0.2146    1.4056   -1.4735 H   0  0  0  0  0  0  0  0  0  0  0  0
  1  2  2  0
  2  3  1  0
  3  4  2  0
  4  5  1  0
  5  6  1  0
  6  7  1  0
  7  8  1  0
  8  2  1  0
  8  5  1  0
  3  9  1  0
  4 10  1  0
  5 11  1  0
  6 12  1  0
  6 13  1  0
  7 14  1  0
  7 15  1  0
  8 16  1  0
M  END
