
     RDKit          2D

 14 16  0  0  0  0  0  0  0  0999 V2000
   -2.9937    1.8107    0.0000 O   0  0  0  0  0  0  0  0  0  0  0  0
   -1.9330    0.7500    0.0000 C   0  0  0  0  0  0  0  0  0  0  0  0
   -1.9330   -0.7500    0.0000 C   0  0  0  0  0  0  0  0  0  0  0  0
    0.1160   -1.2990    0.0000 C   0  0  0  0  0  0  0  0  0  0  0  0
    0.8660    0.0000    0.0000 C   0  0  0  0  0  0  0  0  0  0  0  0
    2.3660    0.0000    0.0000 O   0  0  0  0  0  0  0  0  0  0  0  0
   -0.4330    0.7500    0.0000 C   0  0  0  0  0  0  0  0  0  0  0  0
   -0.4330   -0.7500    0.0000 C   0  0  0  0  0  0  0  0  0  0  0  0
   -2.9937   -1.8107    0.0000 H   0  0  0  0  0  0  0  0  0  0  0  0
    1.4151   -2.0490    0.0000 H   0  0  0  0  0  0  0  0  0  0  0  0
   -0.3587   -2.4175    0.0000 H   0  0  0  0  0  0  0  0  0  0  0  0
    3.1160    1.2990    0.0000 H   0  0  0  0  0  0  0  0  0  0  0  0
   -0.0448    2.1989    0.0000 H   0  0  0  0  0  0  0  0  0  0  0  0
   -0.3221   -1.5394    0.0000 H   0  0  0  0  0  0  0  0  0  0  0  0
  1  2  2  0
  2  3  1  0
  3  4  1  0
  4  5  1  0
  5  6  1  0
  5  7  1  0
  7  8  1  0
  7  2  1  0
  8  3  1  0
  8  5  1  0
  3  9  1  0
  4 10  1  0
  4 11  1  0
  6 12  1  0
  7 13  1  0
  8 14  1  0
M  END
