
     RDKit          3D

 19 20  0  0  0  0  0  0  0  0999 V2000
   -0.1081    2.0571   -1.2000 O   0  0  0  0  0  0  0  0  0  0  0  0
    0.5174    1.1376   -0.6188 C   0  0  0  0  0  0  0  0  0  0  0  0
    1.9581    1.0834   -0.4018 C   0  0  0  0  0  0  0  0  0  0  0  0
    2.3384   -0.0782    0.0816 C   0  0  0  0  0  0  0  0  0  0  0  0
    1.1347   -0.9552    0.2428 C   0  0  0  0  0  0  0  0  0  0  0  0
   -0.0366   -0.0844   -0.0267 C   0  0  0  0  0  0  0  0  0  0  0  0
   -0.9948    0.1279    1.1170 C   0  0  0  0  0  0  0  0  0  0  0  0
   -2.1100    0.1513    0.0707 C   0  0  0  0  0  0  0  0  0  0  0  0
   -1.1857   -0.7125   -0.7836 C   0  0  0  0  0  0  0  0  0  0  0  0
    2.6874    1.8831   -0.5992 H   0  0  0  0  0  0  0  0  0  0  0  0
    3.3619   -0.3692    0.3297 H   0  0  0  0  0  0  0  0  0  0  0  0
    1.2001   -1.7306   -0.5473 H   0  0  0  0  0  0  0  0  0  0  0  0
    1.1284   -1.4081    1.2668 H   0  0  0  0  0  0  0  0  0  0  0  0
   -0.9489    1.0886    1.6293 H   0  0  0  0  0  0  0  0  0  0  0  0
   -1.1030   -0.7808    1.7363 H   0  0  0  0  0  0  0  0  0  0  0  0
   -2.2802    1.1706   -0.3310 H   0  0  0  0  0  0  0  0  0  0  0  0
   -3.0361   -0.3302    0.3934 H   0  0  0  0  0  0  0  0  0  0  0  0
   -1.2108   -0.4836   -1.8632 H   0  0  0  0  0  0  0  0  0  0  0  0
   -1.3123   -1.7669   -0.4958 H   0  0  0  0  0  0  0  0  0  0  0  0
  1  2  2  0
  2  3  1  0
  3  4  2  0
  4  5  1  0
  5  6  1  0
  6  7  1  0
  7  8  1  0
  8  9  1  0
  6  2  1  0
  9  6  1  0
  3 10  1  0
  4 11  1  0
  5 12  1  0
  5 13  1  0
  7 14  1  0
  7 15  1  0
  8 16  1  0
  8 17  1  0
  9 18  1  0
  9 19  1  0
M  END
