
     RDKit          3D

 16 16  0  0  0  0  0  0  0  0999 V2000
    2.2067    1.7740   -0.0831 O   0  0  0  0  0  0  0  0  0  0  0  0
    1.2365    0.9864   -0.1111 C   0  0  0  0  0  0  0  0  0  0  0  0
   -0.0727    1.5540    0.1422 C   0  0  0  0  0  0  0  0  0  0  0  0
   -1.2988    1.0366    0.0802 C   0  0  0  0  0  0  0  0  0  0  0  0
   -1.5835   -0.3788   -0.3036 C   0  0  0  0  0  0  0  0  0  0  0  0
   -0.6465   -1.2456    0.4655 C   0  0  0  0  0  0  0  0  0  0  0  0
    0.6809   -1.2711    0.4306 C   0  0  0  0  0  0  0  0  0  0  0  0
    1.5792   -0.4227   -0.4026 C   0  0  0  0  0  0  0  0  0  0  0  0
   -0.0495    2.6026    0.4396 H   0  0  0  0  0  0  0  0  0  0  0  0
   -2.1416    1.6726    0.3205 H   0  0  0  0  0  0  0  0  0  0  0  0
   -2.6214   -0.6673   -0.1232 H   0  0  0  0  0  0  0  0  0  0  0  0
   -1.3213   -0.4457   -1.3952 H   0  0  0  0  0  0  0  0  0  0  0  0
   -1.1090   -1.9678    1.1613 H   0  0  0  0  0  0  0  0  0  0  0  0
    1.2212   -1.9691    1.0595 H   0  0  0  0  0  0  0  0  0  0  0  0
    1.2777   -0.6069   -1.4597 H   0  0  0  0  0  0  0  0  0  0  0  0
    2.6422   -0.6512   -0.2210 H   0  0  0  0  0  0  0  0  0  0  0  0
  1  2  2  0
  2  3  1  0
  3  4  2  0
  4  5  1  0
  5  6  1  0
  6  7  2  0
  7  8  1  0
  8  2  1  0
  3  9  1  0
  4 10  1  0
  5 11  1  0
  5 12  1  0
  6 13  1  0
  7 14  1  0
  8 15  1  0
  8 16  1  0
M  END
