
     RDKit          3D

 19 19  0  0  0  0  0  0  0  0999 V2000
   -1.9732    0.6933   -2.2208 O   0  0  0  0  0  0  0  0  0  0  0  0
   -1.6736    0.3391   -1.0965 C   0  0  0  0  0  0  0  0  0  0  0  0
   -1.2782    0.9375    0.2162 C   0  0  0  0  0  0  0  0  0  0  0  0
   -0.4554   -0.3191    0.4252 C   0  0  0  0  0  0  0  0  0  0  0  0
   -0.5077   -0.8171    1.7236 O   0  0  0  0  0  0  0  0  0  0  0  0
    0.8981   -0.3213   -0.2101 C   0  0  0  0  0  0  0  0  0  0  0  0
    1.7410    0.8068    0.3273 C   0  0  0  0  0  0  0  0  0  0  0  0
    3.0060    0.8319   -0.2433 O   0  0  0  0  0  0  0  0  0  0  0  0
   -1.5457   -0.9855   -0.4271 C   0  0  0  0  0  0  0  0  0  0  0  0
   -2.1177    0.9565    0.9490 H   0  0  0  0  0  0  0  0  0  0  0  0
   -0.7343    1.8746    0.1374 H   0  0  0  0  0  0  0  0  0  0  0  0
   -0.5580   -1.8094    1.6893 H   0  0  0  0  0  0  0  0  0  0  0  0
    0.8270   -0.2946   -1.3103 H   0  0  0  0  0  0  0  0  0  0  0  0
    1.4001   -1.2658    0.0806 H   0  0  0  0  0  0  0  0  0  0  0  0
    1.3007    1.8021    0.1855 H   0  0  0  0  0  0  0  0  0  0  0  0
    1.9129    0.5925    1.4143 H   0  0  0  0  0  0  0  0  0  0  0  0
    3.3704   -0.0465   -0.4590 H   0  0  0  0  0  0  0  0  0  0  0  0
   -1.1912   -1.8007   -1.0615 H   0  0  0  0  0  0  0  0  0  0  0  0
   -2.4212   -1.1743    0.2094 H   0  0  0  0  0  0  0  0  0  0  0  0
  1  2  2  0
  2  3  1  0
  3  4  1  0
  4  5  1  0
  4  6  1  0
  6  7  1  0
  7  8  1  0
  4  9  1  0
  9  2  1  0
  3 10  1  0
  3 11  1  0
  5 12  1  0
  6 13  1  0
  6 14  1  0
  7 15  1  0
  7 16  1  0
  8 17  1  0
  9 18  1  0
  9 19  1  0
M  END
