
     RDKit          3D

 19 19  0  0  0  0  0  0  0  0999 V2000
   -1.5226    2.6070    0.1601 O   0  0  0  0  0  0  0  0  0  0  0  0
   -1.1519    1.3941    0.3147 C   0  0  0  0  0  0  0  0  0  0  0  0
    0.2148    1.0900    0.6980 C   0  0  0  0  0  0  0  0  0  0  0  0
    0.8002    0.0362    0.1576 C   0  0  0  0  0  0  0  0  0  0  0  0
    2.1850   -0.2955    0.5284 C   0  0  0  0  0  0  0  0  0  0  0  0
    2.9705   -0.2626   -0.6241 O   0  0  0  0  0  0  0  0  0  0  0  0
    0.0078   -0.7616   -0.8095 C   0  0  0  0  0  0  0  0  0  0  0  0
   -1.4112   -0.9801   -0.3345 C   0  0  0  0  0  0  0  0  0  0  0  0
   -2.0908    0.2660    0.1114 C   0  0  0  0  0  0  0  0  0  0  0  0
    0.7079    1.7413    1.4136 H   0  0  0  0  0  0  0  0  0  0  0  0
    2.1575   -1.3510    0.9308 H   0  0  0  0  0  0  0  0  0  0  0  0
    2.5813    0.3165    1.3484 H   0  0  0  0  0  0  0  0  0  0  0  0
    2.9647    0.6804   -0.9339 H   0  0  0  0  0  0  0  0  0  0  0  0
    0.4978   -1.7392   -0.9916 H   0  0  0  0  0  0  0  0  0  0  0  0
   -0.0442   -0.2530   -1.8145 H   0  0  0  0  0  0  0  0  0  0  0  0
   -1.3735   -1.7297    0.4677 H   0  0  0  0  0  0  0  0  0  0  0  0
   -2.0004   -1.3801   -1.2095 H   0  0  0  0  0  0  0  0  0  0  0  0
   -2.9449    0.5585   -0.5377 H   0  0  0  0  0  0  0  0  0  0  0  0
   -2.5479    0.0629    1.1244 H   0  0  0  0  0  0  0  0  0  0  0  0
  1  2  2  0
  2  3  1  0
  3  4  2  0
  4  5  1  0
  5  6  1  0
  4  7  1  0
  7  8  1  0
  8  9  1  0
  9  2  1  0
  3 10  1  0
  5 11  1  0
  5 12  1  0
  6 13  1  0
  7 14  1  0
  7 15  1  0
  8 16  1  0
  8 17  1  0
  9 18  1  0
  9 19  1  0
M  END
