
     RDKit          3D

 15 16  0  0  0  0  0  0  0  0999 V2000
    1.7943   -1.9469    0.2621 O   0  0  0  0  0  0  0  0  0  0  0  0
    1.5831   -0.7175    0.1652 C   0  0  0  0  0  0  0  0  0  0  0  0
    2.3405    0.4411    0.1794 O   0  0  0  0  0  0  0  0  0  0  0  0
    1.2067    1.3047    0.0099 C   0  0  0  0  0  0  0  0  0  0  0  0
    0.3947    0.0947   -0.0146 C   0  0  0  0  0  0  0  0  0  0  0  0
   -0.7007   -0.2213   -0.9244 C   0  0  0  0  0  0  0  0  0  0  0  0
   -0.6829   -1.4981   -1.4941 O   0  0  0  0  0  0  0  0  0  0  0  0
   -0.8816   -0.1452    0.6065 C   0  0  0  0  0  0  0  0  0  0  0  0
   -1.7761    0.8061    1.0174 O   0  0  0  0  0  0  0  0  0  0  0  0
    1.3201    1.7899   -1.0035 H   0  0  0  0  0  0  0  0  0  0  0  0
    1.1457    2.0032    0.8489 H   0  0  0  0  0  0  0  0  0  0  0  0
   -1.1628    0.5984   -1.5252 H   0  0  0  0  0  0  0  0  0  0  0  0
   -1.4474   -2.0311   -1.1868 H   0  0  0  0  0  0  0  0  0  0  0  0
   -1.0239   -1.1393    1.1226 H   0  0  0  0  0  0  0  0  0  0  0  0
   -2.1098    0.6613    1.9365 H   0  0  0  0  0  0  0  0  0  0  0  0
  1  2  2  0
  2  3  1  0
  3  4  1  0
  4  5  1  0
  5  6  1  0
  6  7  1  0
  6  8  1  0
  8  9  1  0
  5  2  1  0
  8  5  1  0
  4 10  1  0
  4 11  1  0
  6 12  1  0
  7 13  1  0
  8 14  1  0
  9 15  1  0
M  END
