
     RDKit          3D

 14 14  0  0  0  0  0  0  0  0999 V2000
    1.3949   -0.3022   -1.7957 O   0  0  0  0  0  0  0  0  0  0  0  0
    0.9366   -0.2641   -0.6903 C   0  0  0  0  0  0  0  0  0  0  0  0
   -0.1545   -1.1628   -0.2958 C   0  0  0  0  0  0  0  0  0  0  0  0
   -1.2952   -0.3109    0.2503 C   0  0  0  0  0  0  0  0  0  0  0  0
   -0.9303    1.1391    0.2534 C   0  0  0  0  0  0  0  0  0  0  0  0
   -1.7823    1.9769   -0.1429 O   0  0  0  0  0  0  0  0  0  0  0  0
    0.3410    1.5012    0.6963 O   0  0  0  0  0  0  0  0  0  0  0  0
    1.4581    0.6874    0.3015 C   0  0  0  0  0  0  0  0  0  0  0  0
    0.2155   -1.8062    0.5285 H   0  0  0  0  0  0  0  0  0  0  0  0
   -0.4923   -1.8396   -1.1047 H   0  0  0  0  0  0  0  0  0  0  0  0
   -1.5683   -0.6328    1.2723 H   0  0  0  0  0  0  0  0  0  0  0  0
   -2.1714   -0.4996   -0.4190 H   0  0  0  0  0  0  0  0  0  0  0  0
    1.7863    0.1683    1.2323 H   0  0  0  0  0  0  0  0  0  0  0  0
    2.2619    1.3452   -0.0859 H   0  0  0  0  0  0  0  0  0  0  0  0
  1  2  2  0
  2  3  1  0
  3  4  1  0
  4  5  1  0
  5  6  2  0
  5  7  1  0
  7  8  1  0
  8  2  1  0
  3  9  1  0
  3 10  1  0
  4 11  1  0
  4 12  1  0
  8 13  1  0
  8 14  1  0
M  END
