
     RDKit          3D

 17 17  0  0  0  0  0  0  0  0999 V2000
   -1.2075   -2.2209    0.5334 O   0  0  0  0  0  0  0  0  0  0  0  0
   -0.7511   -1.1126    0.5504 C   0  0  0  0  0  0  0  0  0  0  0  0
   -1.6241    0.0526    0.3573 C   0  0  0  0  0  0  0  0  0  0  0  0
   -1.0641    0.9466   -0.7519 C   0  0  0  0  0  0  0  0  0  0  0  0
    0.3988    1.0665   -0.5688 C   0  0  0  0  0  0  0  0  0  0  0  0
    0.9420    2.1443   -0.4983 O   0  0  0  0  0  0  0  0  0  0  0  0
    1.2035   -0.1696   -0.4714 C   0  0  0  0  0  0  0  0  0  0  0  0
    2.5547    0.0330   -0.4392 O   0  0  0  0  0  0  0  0  0  0  0  0
    0.6909   -0.9202    0.7658 C   0  0  0  0  0  0  0  0  0  0  0  0
   -1.5877    0.6644    1.2815 H   0  0  0  0  0  0  0  0  0  0  0  0
   -2.6608   -0.2533    0.1070 H   0  0  0  0  0  0  0  0  0  0  0  0
   -1.6001    1.9042   -0.7170 H   0  0  0  0  0  0  0  0  0  0  0  0
   -1.2190    0.4471   -1.7439 H   0  0  0  0  0  0  0  0  0  0  0  0
    0.9369   -0.8070   -1.3318 H   0  0  0  0  0  0  0  0  0  0  0  0
    2.9273    0.3584    0.3953 H   0  0  0  0  0  0  0  0  0  0  0  0
    1.2278   -1.8864    0.8943 H   0  0  0  0  0  0  0  0  0  0  0  0
    0.8325   -0.2470    1.6372 H   0  0  0  0  0  0  0  0  0  0  0  0
  1  2  2  0
  2  3  1  0
  3  4  1  0
  4  5  1  0
  5  6  2  0
  5  7  1  0
  7  8  1  0
  7  9  1  0
  9  2  1  0
  3 10  1  0
  3 11  1  0
  4 12  1  0
  4 13  1  0
  7 14  1  0
  8 15  1  0
  9 16  1  0
  9 17  1  0
M  END
