
     RDKit          3D

 15 16  0  0  0  0  0  0  0  0999 V2000
   -2.3811    1.8750   -0.1137 O   0  0  0  0  0  0  0  0  0  0  0  0
   -1.4541    1.0617    0.1869 C   0  0  0  0  0  0  0  0  0  0  0  0
   -1.3312   -0.2379   -0.5031 C   0  0  0  0  0  0  0  0  0  0  0  0
    0.0257   -0.7273   -0.1367 C   0  0  0  0  0  0  0  0  0  0  0  0
    0.1723   -2.1264   -0.0552 O   0  0  0  0  0  0  0  0  0  0  0  0
    1.2487    0.0403   -0.3458 C   0  0  0  0  0  0  0  0  0  0  0  0
    1.2735    1.2566   -1.0253 O   0  0  0  0  0  0  0  0  0  0  0  0
    0.4531    0.1295    0.9745 C   0  0  0  0  0  0  0  0  0  0  0  0
   -0.4500    1.1872    1.1289 O   0  0  0  0  0  0  0  0  0  0  0  0
   -2.0787   -0.9773   -0.1082 H   0  0  0  0  0  0  0  0  0  0  0  0
   -1.5227   -0.1826   -1.5910 H   0  0  0  0  0  0  0  0  0  0  0  0
    0.8791   -2.3825    0.5953 H   0  0  0  0  0  0  0  0  0  0  0  0
    2.2087   -0.4945   -0.3274 H   0  0  0  0  0  0  0  0  0  0  0  0
    1.9308    1.8324   -0.5276 H   0  0  0  0  0  0  0  0  0  0  0  0
    1.0260   -0.2542    1.8485 H   0  0  0  0  0  0  0  0  0  0  0  0
  1  2  2  0
  2  3  1  0
  3  4  1  0
  4  5  1  0
  4  6  1  0
  6  7  1  0
  6  8  1  0
  8  9  1  0
  9  2  1  0
  8  4  1  0
  3 10  1  0
  3 11  1  0
  5 12  1  0
  6 13  1  0
  7 14  1  0
  8 15  1  0
M  END
