
     RDKit          3D

 15 16  0  0  0  0  0  0  0  0999 V2000
   -2.4352    0.0311    1.0472 O   0  0  0  0  0  0  0  0  0  0  0  0
   -1.4628   -0.0941    0.2957 C   0  0  0  0  0  0  0  0  0  0  0  0
   -0.7546   -1.2640   -0.2967 C   0  0  0  0  0  0  0  0  0  0  0  0
    0.3950   -0.3903   -0.6752 C   0  0  0  0  0  0  0  0  0  0  0  0
    1.4869   -0.2273    0.3442 C   0  0  0  0  0  0  0  0  0  0  0  0
    1.3589    1.0445    0.9395 O   0  0  0  0  0  0  0  0  0  0  0  0
    0.1934    1.6608    0.5386 C   0  0  0  0  0  0  0  0  0  0  0  0
   -0.1910    2.7749    0.9217 O   0  0  0  0  0  0  0  0  0  0  0  0
   -0.5037    0.7881   -0.4036 C   0  0  0  0  0  0  0  0  0  0  0  0
   -1.2996   -1.6653   -1.1700 H   0  0  0  0  0  0  0  0  0  0  0  0
   -0.4585   -2.0011    0.4690 H   0  0  0  0  0  0  0  0  0  0  0  0
    0.7266   -0.5132   -1.7175 H   0  0  0  0  0  0  0  0  0  0  0  0
    1.3340   -1.0266    1.1084 H   0  0  0  0  0  0  0  0  0  0  0  0
    2.5022   -0.3753   -0.0719 H   0  0  0  0  0  0  0  0  0  0  0  0
   -0.8916    1.2579   -1.3293 H   0  0  0  0  0  0  0  0  0  0  0  0
  1  2  2  0
  2  3  1  0
  3  4  1  0
  4  5  1  0
  5  6  1  0
  6  7  1  0
  7  8  2  0
  7  9  1  0
  9  2  1  0
  9  4  1  0
  3 10  1  0
  3 11  1  0
  4 12  1  0
  5 13  1  0
  5 14  1  0
  9 15  1  0
M  END
