
     RDKit          3D

 14 14  0  0  0  0  0  0  0  0999 V2000
    1.9413    2.2351   -0.1192 O   0  0  0  0  0  0  0  0  0  0  0  0
    1.0949    1.3250    0.0690 C   0  0  0  0  0  0  0  0  0  0  0  0
    1.5607   -0.0669    0.0845 C   0  0  0  0  0  0  0  0  0  0  0  0
    0.8318   -1.1688   -0.0024 C   0  0  0  0  0  0  0  0  0  0  0  0
   -0.6462   -1.2541   -0.1377 C   0  0  0  0  0  0  0  0  0  0  0  0
   -1.2958   -0.3298    0.6769 O   0  0  0  0  0  0  0  0  0  0  0  0
   -1.4107    0.9173    0.1237 C   0  0  0  0  0  0  0  0  0  0  0  0
   -0.2481    1.7128    0.2523 O   0  0  0  0  0  0  0  0  0  0  0  0
    2.6437   -0.1636    0.1806 H   0  0  0  0  0  0  0  0  0  0  0  0
    1.3817   -2.0900    0.0297 H   0  0  0  0  0  0  0  0  0  0  0  0
   -0.9834   -1.2395   -1.1795 H   0  0  0  0  0  0  0  0  0  0  0  0
   -0.9292   -2.2695    0.2664 H   0  0  0  0  0  0  0  0  0  0  0  0
   -2.2223    1.4547    0.6874 H   0  0  0  0  0  0  0  0  0  0  0  0
   -1.7185    0.9372   -0.9317 H   0  0  0  0  0  0  0  0  0  0  0  0
  1  2  2  0
  2  3  1  0
  3  4  2  0
  4  5  1  0
  5  6  1  0
  6  7  1  0
  7  8  1  0
  8  2  1  0
  3  9  1  0
  4 10  1  0
  5 11  1  0
  5 12  1  0
  7 13  1  0
  7 14  1  0
M  END
