
     RDKit          3D

 14 15  0  0  0  0  0  0  0  0999 V2000
   -0.2230    2.2534    0.4937 O   0  0  0  0  0  0  0  0  0  0  0  0
   -0.3101    1.0810    0.2410 C   0  0  0  0  0  0  0  0  0  0  0  0
   -0.4559    0.2419   -0.9705 C   0  0  0  0  0  0  0  0  0  0  0  0
   -1.2429   -0.7262   -0.0727 C   0  0  0  0  0  0  0  0  0  0  0  0
   -0.3181   -0.1751    1.0251 C   0  0  0  0  0  0  0  0  0  0  0  0
    0.9394   -0.7557    0.9251 O   0  0  0  0  0  0  0  0  0  0  0  0
    1.6225   -0.2028   -0.1619 C   0  0  0  0  0  0  0  0  0  0  0  0
    0.7852   -0.3211   -1.2745 O   0  0  0  0  0  0  0  0  0  0  0  0
   -1.0140    0.6562   -1.8022 H   0  0  0  0  0  0  0  0  0  0  0  0
   -1.1000   -1.7803   -0.2968 H   0  0  0  0  0  0  0  0  0  0  0  0
   -2.2547   -0.3573    0.1092 H   0  0  0  0  0  0  0  0  0  0  0  0
   -0.7900   -0.1591    1.9999 H   0  0  0  0  0  0  0  0  0  0  0  0
    1.7573    0.8859    0.0979 H   0  0  0  0  0  0  0  0  0  0  0  0
    2.6043   -0.6408   -0.3133 H   0  0  0  0  0  0  0  0  0  0  0  0
  1  2  2  0
  2  3  1  0
  3  4  1  0
  4  5  1  0
  5  6  1  0
  6  7  1  0
  7  8  1  0
  5  2  1  0
  8  3  1  0
  3  9  1  0
  4 10  1  0
  4 11  1  0
  5 12  1  0
  7 13  1  0
  7 14  1  0
M  END
