
     RDKit          3D

 15 17  0  0  0  0  0  0  0  0999 V2000
    0.4763    1.8653   -1.6297 O   0  0  0  0  0  0  0  0  0  0  0  0
    0.2067    0.9127   -0.9831 C   0  0  0  0  0  0  0  0  0  0  0  0
   -1.0378    0.1166   -0.9831 C   0  0  0  0  0  0  0  0  0  0  0  0
   -1.3511    0.1391    0.5023 C   0  0  0  0  0  0  0  0  0  0  0  0
    0.0323   -0.3142    0.9990 C   0  0  0  0  0  0  0  0  0  0  0  0
    0.4706   -1.1831   -0.1013 C   0  0  0  0  0  0  0  0  0  0  0  0
   -0.5221   -1.1646   -1.1072 O   0  0  0  0  0  0  0  0  0  0  0  0
    1.0043    0.1944    0.0348 C   0  0  0  0  0  0  0  0  0  0  0  0
    2.3196    0.3702    0.2130 O   0  0  0  0  0  0  0  0  0  0  0  0
   -1.8133    0.4054   -1.6361 H   0  0  0  0  0  0  0  0  0  0  0  0
   -2.1160   -0.6020    0.7274 H   0  0  0  0  0  0  0  0  0  0  0  0
   -1.5720    1.1655    0.7822 H   0  0  0  0  0  0  0  0  0  0  0  0
    0.1961   -0.4906    2.0499 H   0  0  0  0  0  0  0  0  0  0  0  0
    1.0663   -2.0768    0.0491 H   0  0  0  0  0  0  0  0  0  0  0  0
    2.6400    0.6621    1.0830 H   0  0  0  0  0  0  0  0  0  0  0  0
  1  2  2  0
  2  3  1  0
  3  4  1  0
  4  5  1  0
  5  6  1  0
  6  7  1  0
  6  8  1  0
  8  9  1  0
  8  2  1  0
  7  3  1  0
  8  5  1  0
  3 10  1  0
  4 11  1  0
  4 12  1  0
  5 13  1  0
  6 14  1  0
  9 15  1  0
M  END
