
     RDKit          3D

 16 17  0  0  0  0  0  0  0  0999 V2000
    0.9309    1.3631   -1.8548 O   0  0  0  0  0  0  0  0  0  0  0  0
    0.6014    0.6052   -1.0068 C   0  0  0  0  0  0  0  0  0  0  0  0
    0.0246   -0.7626   -0.9584 C   0  0  0  0  0  0  0  0  0  0  0  0
   -1.3513   -0.4751   -0.4002 C   0  0  0  0  0  0  0  0  0  0  0  0
   -0.9157    0.3831    0.8042 C   0  0  0  0  0  0  0  0  0  0  0  0
    0.5479    0.5204    0.4739 C   0  0  0  0  0  0  0  0  0  0  0  0
    1.3484    1.2640    1.2231 O   0  0  0  0  0  0  0  0  0  0  0  0
    0.9146   -0.9583    0.2601 C   0  0  0  0  0  0  0  0  0  0  0  0
    0.1347   -1.4133   -1.7862 H   0  0  0  0  0  0  0  0  0  0  0  0
   -1.9010   -1.3613   -0.0923 H   0  0  0  0  0  0  0  0  0  0  0  0
   -1.8623    0.1961   -1.0938 H   0  0  0  0  0  0  0  0  0  0  0  0
   -1.0470   -0.1909    1.7283 H   0  0  0  0  0  0  0  0  0  0  0  0
   -1.4359    1.3480    0.8000 H   0  0  0  0  0  0  0  0  0  0  0  0
    1.5183    2.1850    0.9465 H   0  0  0  0  0  0  0  0  0  0  0  0
    0.5370   -1.6372    1.0246 H   0  0  0  0  0  0  0  0  0  0  0  0
    1.9554   -1.0661   -0.0681 H   0  0  0  0  0  0  0  0  0  0  0  0
  1  2  2  0
  2  3  1  0
  3  4  1  0
  4  5  1  0
  5  6  1  0
  6  7  1  0
  6  8  1  0
  6  2  1  0
  8  3  1  0
  3  9  1  0
  4 10  1  0
  4 11  1  0
  5 12  1  0
  5 13  1  0
  7 14  1  0
  8 15  1  0
  8 16  1  0
M  END
