
     RDKit          3D

 14 14  0  0  0  0  0  0  0  0999 V2000
    0.0037    2.4726   -0.5724 O   0  0  0  0  0  0  0  0  0  0  0  0
   -0.0167    1.2900   -0.2921 C   0  0  0  0  0  0  0  0  0  0  0  0
   -1.2000    0.4001   -0.2553 C   0  0  0  0  0  0  0  0  0  0  0  0
   -0.6922   -0.8168    0.4963 C   0  0  0  0  0  0  0  0  0  0  0  0
    0.7215   -0.9320   -0.0899 C   0  0  0  0  0  0  0  0  0  0  0  0
    1.2021    0.5033    0.0782 C   0  0  0  0  0  0  0  0  0  0  0  0
   -1.4747    0.0355   -1.2762 H   0  0  0  0  0  0  0  0  0  0  0  0
   -2.0774    0.8578    0.1999 H   0  0  0  0  0  0  0  0  0  0  0  0
   -1.2879   -1.7129    0.2748 H   0  0  0  0  0  0  0  0  0  0  0  0
   -0.5988   -0.6356    1.5842 H   0  0  0  0  0  0  0  0  0  0  0  0
    0.5976   -1.1961   -1.1532 H   0  0  0  0  0  0  0  0  0  0  0  0
    1.3276   -1.6454    0.4640 H   0  0  0  0  0  0  0  0  0  0  0  0
    1.4598    0.6541    1.1372 H   0  0  0  0  0  0  0  0  0  0  0  0
    2.0354    0.7255   -0.5956 H   0  0  0  0  0  0  0  0  0  0  0  0
  1  2  2  0
  2  3  1  0
  3  4  1  0
  4  5  1  0
  5  6  1  0
  6  2  1  0
  3  7  1  0
  3  8  1  0
  4  9  1  0
  4 10  1  0
  5 11  1  0
  5 12  1  0
  6 13  1  0
  6 14  1  0
M  END
