
     RDKit          3D

 19 21  0  0  0  0  0  0  0  0999 V2000
    0.5450   -0.4867    2.2800 O   0  0  0  0  0  0  0  0  0  0  0  0
    0.0961   -0.4285    1.1750 C   0  0  0  0  0  0  0  0  0  0  0  0
   -1.1232   -0.9207    0.5298 C   0  0  0  0  0  0  0  0  0  0  0  0
   -2.4361   -0.4628    0.4045 C   0  0  0  0  0  0  0  0  0  0  0  0
   -1.5181    0.5298    0.0275 C   0  0  0  0  0  0  0  0  0  0  0  0
   -0.3924    0.6066   -0.9373 C   0  0  0  0  0  0  0  0  0  0  0  0
    0.7630    0.2588    0.0131 C   0  0  0  0  0  0  0  0  0  0  0  0
    1.9104   -0.5283   -0.5551 C   0  0  0  0  0  0  0  0  0  0  0  0
    2.0282    0.8737    0.0348 C   0  0  0  0  0  0  0  0  0  0  0  0
   -0.7878   -1.6386   -0.2860 H   0  0  0  0  0  0  0  0  0  0  0  0
   -3.1057   -0.8764   -0.4076 H   0  0  0  0  0  0  0  0  0  0  0  0
   -3.0555   -0.3335    1.3300 H   0  0  0  0  0  0  0  0  0  0  0  0
   -1.3757    1.3592    0.7901 H   0  0  0  0  0  0  0  0  0  0  0  0
   -0.2831    1.6446   -1.3113 H   0  0  0  0  0  0  0  0  0  0  0  0
   -0.3879   -0.1589   -1.7191 H   0  0  0  0  0  0  0  0  0  0  0  0
    1.8800   -0.6406   -1.6567 H   0  0  0  0  0  0  0  0  0  0  0  0
    2.3434   -1.3672   -0.0055 H   0  0  0  0  0  0  0  0  0  0  0  0
    2.5967    0.9365    0.9847 H   0  0  0  0  0  0  0  0  0  0  0  0
    2.3027    1.6329   -0.6908 H   0  0  0  0  0  0  0  0  0  0  0  0
  1  2  2  0
  2  3  1  0
  3  4  1  0
  4  5  1  0
  5  6  1  0
  6  7  1  0
  7  8  1  0
  8  9  1  0
  7  2  1  0
  5  3  1  0
  9  7  1  0
  3 10  1  0
  4 11  1  0
  4 12  1  0
  5 13  1  0
  6 14  1  0
  6 15  1  0
  8 16  1  0
  8 17  1  0
  9 18  1  0
  9 19  1  0
M  END
