
     RDKit          3D

 13 14  0  0  0  0  0  0  0  0999 V2000
    2.6703   -0.7723   -0.2131 O   0  0  0  0  0  0  0  0  0  0  0  0
    1.4729   -0.4170    0.0284 C   0  0  0  0  0  0  0  0  0  0  0  0
    0.4993   -1.3614    0.4178 O   0  0  0  0  0  0  0  0  0  0  0  0
   -0.9093   -1.0880    0.2770 C   0  0  0  0  0  0  0  0  0  0  0  0
   -1.0132    0.0561   -0.6442 C   0  0  0  0  0  0  0  0  0  0  0  0
   -1.4314    1.2957   -0.5484 O   0  0  0  0  0  0  0  0  0  0  0  0
   -0.3550    1.1927    0.1890 C   0  0  0  0  0  0  0  0  0  0  0  0
    1.0390    0.9712   -0.0813 C   0  0  0  0  0  0  0  0  0  0  0  0
    1.8370    1.8744   -0.3875 O   0  0  0  0  0  0  0  0  0  0  0  0
   -1.4697   -1.9907    0.0015 H   0  0  0  0  0  0  0  0  0  0  0  0
   -1.2295   -0.7726    1.3058 H   0  0  0  0  0  0  0  0  0  0  0  0
   -0.5407   -0.1724   -1.6421 H   0  0  0  0  0  0  0  0  0  0  0  0
   -0.5696    1.1843    1.2972 H   0  0  0  0  0  0  0  0  0  0  0  0
  1  2  2  0
  2  3  1  0
  3  4  1  0
  4  5  1  0
  5  6  1  0
  6  7  1  0
  7  8  1  0
  8  9  2  0
  8  2  1  0
  7  5  1  0
  4 10  1  0
  4 11  1  0
  5 12  1  0
  7 13  1  0
M  END
