
     RDKit          3D

 17 18  0  0  0  0  0  0  0  0999 V2000
    0.1315    3.1186    0.2747 O   0  0  0  0  0  0  0  0  0  0  0  0
   -0.1511    1.9264    0.0225 C   0  0  0  0  0  0  0  0  0  0  0  0
   -1.1558    1.3398   -0.7279 O   0  0  0  0  0  0  0  0  0  0  0  0
   -0.8556    0.1226   -0.1030 C   0  0  0  0  0  0  0  0  0  0  0  0
   -1.7992   -0.6803    0.6401 C   0  0  0  0  0  0  0  0  0  0  0  0
   -1.1022   -1.1837   -0.6570 C   0  0  0  0  0  0  0  0  0  0  0  0
    0.4428    0.6302    0.4004 C   0  0  0  0  0  0  0  0  0  0  0  0
    1.6425    0.2141   -0.4156 C   0  0  0  0  0  0  0  0  0  0  0  0
    2.0656   -1.0174    0.0743 O   0  0  0  0  0  0  0  0  0  0  0  0
   -2.8963   -0.5318    0.5653 H   0  0  0  0  0  0  0  0  0  0  0  0
   -1.4512   -1.1476    1.5896 H   0  0  0  0  0  0  0  0  0  0  0  0
   -0.3486   -1.9991   -0.4728 H   0  0  0  0  0  0  0  0  0  0  0  0
   -1.7762   -1.3771   -1.5239 H   0  0  0  0  0  0  0  0  0  0  0  0
    0.6141    0.4660    1.4713 H   0  0  0  0  0  0  0  0  0  0  0  0
    1.3557    0.0632   -1.4818 H   0  0  0  0  0  0  0  0  0  0  0  0
    2.4655    0.9496   -0.3652 H   0  0  0  0  0  0  0  0  0  0  0  0
    2.8187   -0.8934    0.7090 H   0  0  0  0  0  0  0  0  0  0  0  0
  1  2  2  0
  2  3  1  0
  3  4  1  0
  4  5  1  0
  5  6  1  0
  4  7  1  0
  7  8  1  0
  8  9  1  0
  7  2  1  0
  6  4  1  0
  5 10  1  0
  5 11  1  0
  6 12  1  0
  6 13  1  0
  7 14  1  0
  8 15  1  0
  8 16  1  0
  9 17  1  0
M  END
