
     RDKit          3D

 15 16  0  0  0  0  0  0  0  0999 V2000
   -0.9638   -1.1775   -1.9489 O   0  0  0  0  0  0  0  0  0  0  0  0
   -0.5754   -0.5997   -0.9629 C   0  0  0  0  0  0  0  0  0  0  0  0
   -0.4158    0.7754   -0.4390 C   0  0  0  0  0  0  0  0  0  0  0  0
   -0.6919    1.8569   -1.0149 O   0  0  0  0  0  0  0  0  0  0  0  0
   -0.9815    0.2406    0.8464 C   0  0  0  0  0  0  0  0  0  0  0  0
   -0.0013   -0.8226    0.3823 C   0  0  0  0  0  0  0  0  0  0  0  0
    0.2613   -1.9042    0.9504 O   0  0  0  0  0  0  0  0  0  0  0  0
    0.9262    0.3205    0.0701 C   0  0  0  0  0  0  0  0  0  0  0  0
    1.8675    0.1008   -0.9077 O   0  0  0  0  0  0  0  0  0  0  0  0
   -1.0418    2.5735   -0.4349 H   0  0  0  0  0  0  0  0  0  0  0  0
   -2.0319   -0.0546    0.8308 H   0  0  0  0  0  0  0  0  0  0  0  0
   -0.6187    0.7837    1.7359 H   0  0  0  0  0  0  0  0  0  0  0  0
    0.2265   -2.7743    0.4555 H   0  0  0  0  0  0  0  0  0  0  0  0
    1.3137    0.8187    0.9621 H   0  0  0  0  0  0  0  0  0  0  0  0
    2.7267   -0.1372   -0.5254 H   0  0  0  0  0  0  0  0  0  0  0  0
  1  2  2  0
  2  3  1  0
  3  4  1  0
  3  5  1  0
  5  6  1  0
  6  7  1  0
  6  8  1  0
  8  9  1  0
  6  2  1  0
  8  3  1  0
  4 10  1  0
  5 11  1  0
  5 12  1  0
  7 13  1  0
  8 14  1  0
  9 15  1  0
M  END
