
     RDKit          3D

 15 16  0  0  0  0  0  0  0  0999 V2000
    2.0348    2.0818    0.3240 O   0  0  0  0  0  0  0  0  0  0  0  0
    1.5079    0.9425    0.2039 C   0  0  0  0  0  0  0  0  0  0  0  0
    2.1255   -0.3672    0.1032 C   0  0  0  0  0  0  0  0  0  0  0  0
    1.1789   -1.3144   -0.0487 C   0  0  0  0  0  0  0  0  0  0  0  0
   -0.0916   -0.7270   -0.0976 C   0  0  0  0  0  0  0  0  0  0  0  0
   -1.2244   -1.0263    0.5785 O   0  0  0  0  0  0  0  0  0  0  0  0
   -2.0796    0.0496    0.0257 C   0  0  0  0  0  0  0  0  0  0  0  0
   -1.1800    1.2323    0.1565 C   0  0  0  0  0  0  0  0  0  0  0  0
    0.0844    0.7558    0.1433 C   0  0  0  0  0  0  0  0  0  0  0  0
    3.1874   -0.5694    0.1426 H   0  0  0  0  0  0  0  0  0  0  0  0
    1.4414   -2.4068   -0.1193 H   0  0  0  0  0  0  0  0  0  0  0  0
   -0.3714   -0.7740   -1.2567 H   0  0  0  0  0  0  0  0  0  0  0  0
   -2.1895   -0.2387   -1.0271 H   0  0  0  0  0  0  0  0  0  0  0  0
   -2.9798    0.0984    0.6266 H   0  0  0  0  0  0  0  0  0  0  0  0
   -1.4439    2.2634    0.2451 H   0  0  0  0  0  0  0  0  0  0  0  0
  1  2  2  0
  2  3  1  0
  3  4  2  0
  4  5  1  0
  5  6  1  0
  6  7  1  0
  7  8  1  0
  8  9  2  0
  9  2  1  0
  9  5  1  0
  3 10  1  0
  4 11  1  0
  5 12  1  0
  7 13  1  0
  7 14  1  0
  8 15  1  0
M  END
