
     RDKit          3D

 17 18  0  0  0  0  0  0  0  0999 V2000
   -0.8248    1.9253    1.8012 O   0  0  0  0  0  0  0  0  0  0  0  0
   -0.5014    1.2033    0.9112 C   0  0  0  0  0  0  0  0  0  0  0  0
   -0.4230    1.5238   -0.5420 C   0  0  0  0  0  0  0  0  0  0  0  0
    0.0611    0.1538   -1.0190 C   0  0  0  0  0  0  0  0  0  0  0  0
   -0.8663   -0.7549   -0.2392 C   0  0  0  0  0  0  0  0  0  0  0  0
   -0.6439   -2.0988   -0.3908 O   0  0  0  0  0  0  0  0  0  0  0  0
   -0.0902   -0.1879    0.9618 C   0  0  0  0  0  0  0  0  0  0  0  0
    1.1015   -0.1656    0.0200 C   0  0  0  0  0  0  0  0  0  0  0  0
    1.7775   -1.3425   -0.1113 O   0  0  0  0  0  0  0  0  0  0  0  0
   -1.4178    1.7095   -0.9932 H   0  0  0  0  0  0  0  0  0  0  0  0
    0.3159    2.2963   -0.7781 H   0  0  0  0  0  0  0  0  0  0  0  0
    0.2367   -0.0092   -2.0421 H   0  0  0  0  0  0  0  0  0  0  0  0
   -1.8968   -0.3903   -0.3068 H   0  0  0  0  0  0  0  0  0  0  0  0
   -1.1771   -2.5672    0.3146 H   0  0  0  0  0  0  0  0  0  0  0  0
   -0.0511   -0.7575    1.8416 H   0  0  0  0  0  0  0  0  0  0  0  0
    1.7642    0.7206    0.1585 H   0  0  0  0  0  0  0  0  0  0  0  0
    2.6356   -1.2586    0.4135 H   0  0  0  0  0  0  0  0  0  0  0  0
  1  2  2  0
  2  3  1  0
  3  4  1  0
  4  5  1  0
  5  6  1  0
  5  7  1  0
  7  8  1  0
  8  9  1  0
  7  2  1  0
  8  4  1  0
  3 10  1  0
  3 11  1  0
  4 12  1  0
  5 13  1  0
  6 14  1  0
  7 15  1  0
  8 16  1  0
  9 17  1  0
M  END
