
     RDKit          3D

 15 17  0  0  0  0  0  0  0  0999 V2000
    3.2831   -0.4771    0.0704 O   0  0  0  0  0  0  0  0  0  0  0  0
    2.2484    0.1933    0.1426 C   0  0  0  0  0  0  0  0  0  0  0  0
    1.6982    1.2250    0.9459 O   0  0  0  0  0  0  0  0  0  0  0  0
    0.6089    0.3019    0.9963 C   0  0  0  0  0  0  0  0  0  0  0  0
    0.9219    0.3534   -0.5568 C   0  0  0  0  0  0  0  0  0  0  0  0
   -0.3653    0.0393    0.0123 C   0  0  0  0  0  0  0  0  0  0  0  0
   -0.9792   -1.2782   -0.2676 C   0  0  0  0  0  0  0  0  0  0  0  0
   -2.1929   -0.5914   -0.5141 O   0  0  0  0  0  0  0  0  0  0  0  0
   -1.6406    0.6876   -0.2588 C   0  0  0  0  0  0  0  0  0  0  0  0
    1.0057   -0.6409    1.4938 H   0  0  0  0  0  0  0  0  0  0  0  0
    0.9396    1.4079   -0.9813 H   0  0  0  0  0  0  0  0  0  0  0  0
   -1.0080   -1.9071    0.6498 H   0  0  0  0  0  0  0  0  0  0  0  0
   -0.5449   -1.7517   -1.1579 H   0  0  0  0  0  0  0  0  0  0  0  0
   -1.7610    1.3115   -1.1656 H   0  0  0  0  0  0  0  0  0  0  0  0
   -2.2138    1.1266    0.5910 H   0  0  0  0  0  0  0  0  0  0  0  0
  1  2  2  0
  2  3  1  0
  3  4  1  0
  4  5  1  0
  5  6  1  0
  6  7  1  0
  7  8  1  0
  8  9  1  0
  5  2  1  0
  9  6  1  0
  6  4  1  0
  4 10  1  0
  5 11  1  0
  7 12  1  0
  7 13  1  0
  9 14  1  0
  9 15  1  0
M  END
