
     RDKit          3D

 14 15  0  0  0  0  0  0  0  0999 V2000
    2.1997   -1.8542    0.1658 O   0  0  0  0  0  0  0  0  0  0  0  0
    1.3931   -0.9212   -0.0427 C   0  0  0  0  0  0  0  0  0  0  0  0
    1.6526    0.4969    0.2031 C   0  0  0  0  0  0  0  0  0  0  0  0
    0.5569    1.2026    0.0695 C   0  0  0  0  0  0  0  0  0  0  0  0
   -0.5590    0.3113   -0.2840 C   0  0  0  0  0  0  0  0  0  0  0  0
   -1.8465    0.3668    0.4439 C   0  0  0  0  0  0  0  0  0  0  0  0
   -1.7053    0.7878   -0.8637 O   0  0  0  0  0  0  0  0  0  0  0  0
   -0.0090   -1.0341   -0.5856 C   0  0  0  0  0  0  0  0  0  0  0  0
    2.6242    0.9431    0.4663 H   0  0  0  0  0  0  0  0  0  0  0  0
    0.4561    2.2652    0.1919 H   0  0  0  0  0  0  0  0  0  0  0  0
   -1.8948    1.1363    1.2493 H   0  0  0  0  0  0  0  0  0  0  0  0
   -2.4270   -0.5826    0.5877 H   0  0  0  0  0  0  0  0  0  0  0  0
    0.0563   -1.3006   -1.6377 H   0  0  0  0  0  0  0  0  0  0  0  0
   -0.4973   -1.8173    0.0362 H   0  0  0  0  0  0  0  0  0  0  0  0
  1  2  2  0
  2  3  1  0
  3  4  2  0
  4  5  1  0
  5  6  1  0
  6  7  1  0
  5  8  1  0
  8  2  1  0
  7  5  1  0
  3  9  1  0
  4 10  1  0
  6 11  1  0
  6 12  1  0
  8 13  1  0
  8 14  1  0
M  END
