
     RDKit          3D

 19 20  0  0  0  0  0  0  0  0999 V2000
    1.3948   -2.5118   -0.5210 O   0  0  0  0  0  0  0  0  0  0  0  0
    0.9328   -1.3606   -0.2079 C   0  0  0  0  0  0  0  0  0  0  0  0
    1.7767   -0.3576    0.4258 C   0  0  0  0  0  0  0  0  0  0  0  0
    1.6199    0.9289    0.1385 C   0  0  0  0  0  0  0  0  0  0  0  0
    0.5596    1.2751   -0.8426 C   0  0  0  0  0  0  0  0  0  0  0  0
   -0.6766    0.4641   -0.6809 C   0  0  0  0  0  0  0  0  0  0  0  0
   -1.2953    0.5705    0.6773 C   0  0  0  0  0  0  0  0  0  0  0  0
   -1.3524   -0.9344    0.7576 C   0  0  0  0  0  0  0  0  0  0  0  0
   -0.4788   -0.9884   -0.4720 C   0  0  0  0  0  0  0  0  0  0  0  0
    2.5298   -0.7046    1.1309 H   0  0  0  0  0  0  0  0  0  0  0  0
    2.2536    1.6685    0.6161 H   0  0  0  0  0  0  0  0  0  0  0  0
    0.9201    1.2115   -1.8867 H   0  0  0  0  0  0  0  0  0  0  0  0
    0.2740    2.3554   -0.6794 H   0  0  0  0  0  0  0  0  0  0  0  0
   -1.3717    0.6561   -1.5387 H   0  0  0  0  0  0  0  0  0  0  0  0
   -0.6176    1.0119    1.4633 H   0  0  0  0  0  0  0  0  0  0  0  0
   -2.2823    1.0712    0.6111 H   0  0  0  0  0  0  0  0  0  0  0  0
   -0.8918   -1.3548    1.6849 H   0  0  0  0  0  0  0  0  0  0  0  0
   -2.3894   -1.3281    0.5545 H   0  0  0  0  0  0  0  0  0  0  0  0
   -0.9054   -1.6728   -1.2307 H   0  0  0  0  0  0  0  0  0  0  0  0
  1  2  2  0
  2  3  1  0
  3  4  2  0
  4  5  1  0
  5  6  1  0
  6  7  1  0
  7  8  1  0
  8  9  1  0
  9  2  1  0
  9  6  1  0
  3 10  1  0
  4 11  1  0
  5 12  1  0
  5 13  1  0
  6 14  1  0
  7 15  1  0
  7 16  1  0
  8 17  1  0
  8 18  1  0
  9 19  1  0
M  END
