
     RDKit          3D

 14 15  0  0  0  0  0  0  0  0999 V2000
    2.3748   -1.2863    0.6982 O   0  0  0  0  0  0  0  0  0  0  0  0
    1.4868   -0.6190    0.2057 C   0  0  0  0  0  0  0  0  0  0  0  0
    1.3422    0.7694   -0.2942 C   0  0  0  0  0  0  0  0  0  0  0  0
   -0.0957    0.4950   -0.6194 C   0  0  0  0  0  0  0  0  0  0  0  0
   -0.9530    1.1083    0.2942 O   0  0  0  0  0  0  0  0  0  0  0  0
   -1.7122   -0.0181    0.6895 C   0  0  0  0  0  0  0  0  0  0  0  0
   -0.7948   -1.0154    0.9381 O   0  0  0  0  0  0  0  0  0  0  0  0
    0.0855   -0.9121   -0.1299 C   0  0  0  0  0  0  0  0  0  0  0  0
    1.4711    1.4683    0.5771 H   0  0  0  0  0  0  0  0  0  0  0  0
    1.9353    1.0412   -1.1648 H   0  0  0  0  0  0  0  0  0  0  0  0
   -0.4041    0.6221   -1.6676 H   0  0  0  0  0  0  0  0  0  0  0  0
   -2.3123    0.2832    1.5432 H   0  0  0  0  0  0  0  0  0  0  0  0
   -2.3688   -0.2362   -0.1810 H   0  0  0  0  0  0  0  0  0  0  0  0
   -0.0546   -1.7003   -0.8891 H   0  0  0  0  0  0  0  0  0  0  0  0
  1  2  2  0
  2  3  1  0
  3  4  1  0
  4  5  1  0
  5  6  1  0
  6  7  1  0
  7  8  1  0
  8  2  1  0
  8  4  1  0
  3  9  1  0
  3 10  1  0
  4 11  1  0
  6 12  1  0
  6 13  1  0
  8 14  1  0
M  END
