
     RDKit          3D

 17 19  0  0  0  0  0  0  0  0999 V2000
    0.2985   -0.1937    2.6243 O   0  0  0  0  0  0  0  0  0  0  0  0
    0.1770   -0.1610    1.4262 C   0  0  0  0  0  0  0  0  0  0  0  0
    0.7886   -1.0167    0.3632 C   0  0  0  0  0  0  0  0  0  0  0  0
   -0.4488   -1.3797   -0.4211 C   0  0  0  0  0  0  0  0  0  0  0  0
   -0.9974    0.0409   -0.6340 C   0  0  0  0  0  0  0  0  0  0  0  0
    0.1527    0.9717   -0.6187 C   0  0  0  0  0  0  0  0  0  0  0  0
    1.3676    0.0465   -0.5493 C   0  0  0  0  0  0  0  0  0  0  0  0
   -0.6546    0.7797    0.5841 C   0  0  0  0  0  0  0  0  0  0  0  0
   -1.4290    1.7201    1.1771 O   0  0  0  0  0  0  0  0  0  0  0  0
    1.4247   -1.7917    0.6737 H   0  0  0  0  0  0  0  0  0  0  0  0
   -0.1651   -1.8497   -1.3650 H   0  0  0  0  0  0  0  0  0  0  0  0
   -1.1711   -1.9584    0.1798 H   0  0  0  0  0  0  0  0  0  0  0  0
   -1.8835    0.1855   -1.2361 H   0  0  0  0  0  0  0  0  0  0  0  0
    0.1974    1.8806   -1.2133 H   0  0  0  0  0  0  0  0  0  0  0  0
    1.4635   -0.4049   -1.5462 H   0  0  0  0  0  0  0  0  0  0  0  0
    2.2537    0.5327   -0.1583 H   0  0  0  0  0  0  0  0  0  0  0  0
   -1.3740    2.5979    0.7137 H   0  0  0  0  0  0  0  0  0  0  0  0
  1  2  2  0
  2  3  1  0
  3  4  1  0
  4  5  1  0
  5  6  1  0
  6  7  1  0
  6  8  1  0
  8  9  1  0
  8  2  1  0
  7  3  1  0
  8  5  1  0
  3 10  1  0
  4 11  1  0
  4 12  1  0
  5 13  1  0
  6 14  1  0
  7 15  1  0
  7 16  1  0
  9 17  1  0
M  END
