
     RDKit          3D

 14 15  0  0  0  0  0  0  0  0999 V2000
   -1.0491    1.9650    0.8516 O   0  0  0  0  0  0  0  0  0  0  0  0
   -0.8715    0.9500    0.2301 C   0  0  0  0  0  0  0  0  0  0  0  0
   -1.3997   -0.4344    0.0403 C   0  0  0  0  0  0  0  0  0  0  0  0
    0.0777   -0.7621    0.1736 C   0  0  0  0  0  0  0  0  0  0  0  0
    0.4506   -0.5092    1.5101 O   0  0  0  0  0  0  0  0  0  0  0  0
    1.1489   -0.4403   -0.7232 C   0  0  0  0  0  0  0  0  0  0  0  0
    2.3949    0.0847   -0.2950 O   0  0  0  0  0  0  0  0  0  0  0  0
    0.0784    0.4969   -0.7910 C   0  0  0  0  0  0  0  0  0  0  0  0
   -1.9859   -0.8508    0.8499 H   0  0  0  0  0  0  0  0  0  0  0  0
   -1.7943   -0.5511   -0.9879 H   0  0  0  0  0  0  0  0  0  0  0  0
   -0.0616    0.1680    1.9610 H   0  0  0  0  0  0  0  0  0  0  0  0
    1.3459   -1.2065   -1.5319 H   0  0  0  0  0  0  0  0  0  0  0  0
    2.2185    0.7459    0.4422 H   0  0  0  0  0  0  0  0  0  0  0  0
   -0.5527    0.3440   -1.7297 H   0  0  0  0  0  0  0  0  0  0  0  0
  1  2  2  0
  2  3  1  0
  3  4  1  0
  4  5  1  0
  4  6  1  0
  6  7  1  0
  6  8  1  0
  8  2  1  0
  8  4  1  0
  3  9  1  0
  3 10  1  0
  5 11  1  0
  6 12  1  0
  7 13  1  0
  8 14  1  0
M  END
