
     RDKit          3D

 17 20  0  0  0  0  0  0  0  0999 V2000
    2.0130    1.7674    1.0830 O   0  0  0  0  0  0  0  0  0  0  0  0
    1.2585    0.9871    0.5715 C   0  0  0  0  0  0  0  0  0  0  0  0
    1.5912   -0.2567   -0.1595 C   0  0  0  0  0  0  0  0  0  0  0  0
    0.3637   -0.6495   -0.9356 C   0  0  0  0  0  0  0  0  0  0  0  0
   -0.5098    0.5826   -0.8324 C   0  0  0  0  0  0  0  0  0  0  0  0
   -0.2212    1.0965    0.5561 C   0  0  0  0  0  0  0  0  0  0  0  0
   -0.8829   -0.1728    1.0701 C   0  0  0  0  0  0  0  0  0  0  0  0
   -0.6397   -1.2678    0.0520 C   0  0  0  0  0  0  0  0  0  0  0  0
   -1.5717   -0.2547   -0.3088 C   0  0  0  0  0  0  0  0  0  0  0  0
    1.7632   -1.0563    0.6198 H   0  0  0  0  0  0  0  0  0  0  0  0
    2.5046   -0.2066   -0.7495 H   0  0  0  0  0  0  0  0  0  0  0  0
    0.4664   -1.1291   -1.8836 H   0  0  0  0  0  0  0  0  0  0  0  0
   -0.5898    1.2459   -1.6463 H   0  0  0  0  0  0  0  0  0  0  0  0
   -0.6637    2.0339    0.8509 H   0  0  0  0  0  0  0  0  0  0  0  0
   -1.5624   -0.2188    1.8796 H   0  0  0  0  0  0  0  0  0  0  0  0
   -0.7064   -2.2981    0.2413 H   0  0  0  0  0  0  0  0  0  0  0  0
   -2.6130   -0.2031   -0.4085 H   0  0  0  0  0  0  0  0  0  0  0  0
  1  2  2  0
  2  3  1  0
  3  4  1  0
  4  5  1  0
  5  6  1  0
  6  7  1  0
  7  8  1  0
  8  9  1  0
  6  2  1  0
  9  7  1  0
  8  4  1  0
  9  5  1  0
  3 10  1  0
  3 11  1  0
  4 12  1  0
  5 13  1  0
  6 14  1  0
  7 15  1  0
  8 16  1  0
  9 17  1  0
M  END
