
     RDKit          3D

 15 15  0  0  0  0  0  0  0  0999 V2000
    2.7612    0.5883    0.0511 O   0  0  0  0  0  0  0  0  0  0  0  0
    1.5347    0.3735   -0.0001 C   0  0  0  0  0  0  0  0  0  0  0  0
    1.0764   -0.9947   -0.3113 C   0  0  0  0  0  0  0  0  0  0  0  0
   -0.1964   -1.2847    0.4074 C   0  0  0  0  0  0  0  0  0  0  0  0
   -1.3286   -0.5915    0.3881 C   0  0  0  0  0  0  0  0  0  0  0  0
   -1.5702    0.6619   -0.3813 C   0  0  0  0  0  0  0  0  0  0  0  0
   -0.7023    1.6780    0.1460 O   0  0  0  0  0  0  0  0  0  0  0  0
    0.6933    1.5236    0.2589 C   0  0  0  0  0  0  0  0  0  0  0  0
    1.2443    2.5757    0.6478 O   0  0  0  0  0  0  0  0  0  0  0  0
    1.8303   -1.7609    0.0191 H   0  0  0  0  0  0  0  0  0  0  0  0
    0.9037   -1.1147   -1.4213 H   0  0  0  0  0  0  0  0  0  0  0  0
   -0.2374   -2.1700    1.0370 H   0  0  0  0  0  0  0  0  0  0  0  0
   -2.1512   -0.9783    0.9906 H   0  0  0  0  0  0  0  0  0  0  0  0
   -1.2501    0.5141   -1.4464 H   0  0  0  0  0  0  0  0  0  0  0  0
   -2.6077    0.9797   -0.3855 H   0  0  0  0  0  0  0  0  0  0  0  0
  1  2  2  0
  2  3  1  0
  3  4  1  0
  4  5  2  0
  5  6  1  0
  6  7  1  0
  7  8  1  0
  8  9  2  0
  8  2  1  0
  3 10  1  0
  3 11  1  0
  4 12  1  0
  5 13  1  0
  6 14  1  0
  6 15  1  0
M  END
