
     RDKit          3D

 17 18  0  0  0  0  0  0  0  0999 V2000
    1.7462    1.8351   -1.1885 O   0  0  0  0  0  0  0  0  0  0  0  0
    1.1537    0.8823   -0.6778 C   0  0  0  0  0  0  0  0  0  0  0  0
    1.6748   -0.4939   -0.6119 C   0  0  0  0  0  0  0  0  0  0  0  0
    0.9152   -1.4107   -0.0316 C   0  0  0  0  0  0  0  0  0  0  0  0
   -0.3838   -0.9433    0.4882 C   0  0  0  0  0  0  0  0  0  0  0  0
   -0.1643    0.3606    1.2636 C   0  0  0  0  0  0  0  0  0  0  0  0
   -0.1786    1.0648   -0.0701 C   0  0  0  0  0  0  0  0  0  0  0  0
   -1.0416   -0.0932   -0.5783 C   0  0  0  0  0  0  0  0  0  0  0  0
   -2.3971    0.0947   -0.4409 O   0  0  0  0  0  0  0  0  0  0  0  0
    2.6315   -0.7929   -1.0064 H   0  0  0  0  0  0  0  0  0  0  0  0
    1.2030   -2.4213    0.0637 H   0  0  0  0  0  0  0  0  0  0  0  0
   -1.0187   -1.6729    0.9818 H   0  0  0  0  0  0  0  0  0  0  0  0
   -0.9766    0.5923    1.9497 H   0  0  0  0  0  0  0  0  0  0  0  0
    0.8240    0.3376    1.7729 H   0  0  0  0  0  0  0  0  0  0  0  0
   -0.6312    2.0403   -0.1158 H   0  0  0  0  0  0  0  0  0  0  0  0
   -0.7663   -0.4218   -1.5790 H   0  0  0  0  0  0  0  0  0  0  0  0
   -2.5902    1.0421   -0.2195 H   0  0  0  0  0  0  0  0  0  0  0  0
  1  2  2  0
  2  3  1  0
  3  4  2  0
  4  5  1  0
  5  6  1  0
  6  7  1  0
  7  8  1  0
  8  9  1  0
  7  2  1  0
  8  5  1  0
  3 10  1  0
  4 11  1  0
  5 12  1  0
  6 13  1  0
  6 14  1  0
  7 15  1  0
  8 16  1  0
  9 17  1  0
M  END
