
     RDKit          3D

 17 18  0  0  0  0  0  0  0  0999 V2000
   -1.0246    2.3127   -0.9629 O   0  0  0  0  0  0  0  0  0  0  0  0
   -1.1982    1.2716   -0.3001 C   0  0  0  0  0  0  0  0  0  0  0  0
   -2.2250    0.8025    0.4934 O   0  0  0  0  0  0  0  0  0  0  0  0
   -1.7308   -0.5162    0.3334 C   0  0  0  0  0  0  0  0  0  0  0  0
   -0.4142    0.0767   -0.0524 C   0  0  0  0  0  0  0  0  0  0  0  0
    0.6243    0.2096    0.9908 C   0  0  0  0  0  0  0  0  0  0  0  0
    1.9052   -0.0652    0.2674 C   0  0  0  0  0  0  0  0  0  0  0  0
    1.6297   -0.5231   -0.9832 O   0  0  0  0  0  0  0  0  0  0  0  0
    0.2878   -0.5637   -1.1978 C   0  0  0  0  0  0  0  0  0  0  0  0
   -1.7684   -1.1543    1.2112 H   0  0  0  0  0  0  0  0  0  0  0  0
   -2.2428   -0.9855   -0.5302 H   0  0  0  0  0  0  0  0  0  0  0  0
    0.4554   -0.4012    1.8813 H   0  0  0  0  0  0  0  0  0  0  0  0
    0.6528    1.2839    1.3338 H   0  0  0  0  0  0  0  0  0  0  0  0
    2.5261   -0.8344    0.7903 H   0  0  0  0  0  0  0  0  0  0  0  0
    2.5564    0.8318    0.1839 H   0  0  0  0  0  0  0  0  0  0  0  0
   -0.0095   -0.1006   -2.1673 H   0  0  0  0  0  0  0  0  0  0  0  0
   -0.0243   -1.6446   -1.2917 H   0  0  0  0  0  0  0  0  0  0  0  0
  1  2  2  0
  2  3  1  0
  3  4  1  0
  4  5  1  0
  5  6  1  0
  6  7  1  0
  7  8  1  0
  8  9  1  0
  5  2  1  0
  9  5  1  0
  4 10  1  0
  4 11  1  0
  6 12  1  0
  6 13  1  0
  7 14  1  0
  7 15  1  0
  9 16  1  0
  9 17  1  0
M  END
