
     RDKit          3D

 17 18  0  0  0  0  0  0  0  0999 V2000
   -2.1522    1.0038   -1.1621 O   0  0  0  0  0  0  0  0  0  0  0  0
   -1.3143    0.4799   -0.5142 C   0  0  0  0  0  0  0  0  0  0  0  0
   -1.4161   -0.6815    0.4019 C   0  0  0  0  0  0  0  0  0  0  0  0
    0.0591   -0.8712    0.6728 C   0  0  0  0  0  0  0  0  0  0  0  0
    0.4870    0.5511    1.0399 C   0  0  0  0  0  0  0  0  0  0  0  0
    0.1123    0.8283   -0.4184 C   0  0  0  0  0  0  0  0  0  0  0  0
    0.6252    1.8716   -1.0324 O   0  0  0  0  0  0  0  0  0  0  0  0
    0.7258   -0.5601   -0.6761 C   0  0  0  0  0  0  0  0  0  0  0  0
    2.1104   -0.5850   -0.5595 O   0  0  0  0  0  0  0  0  0  0  0  0
   -1.8564   -1.5708   -0.0459 H   0  0  0  0  0  0  0  0  0  0  0  0
   -1.9055   -0.4277    1.3700 H   0  0  0  0  0  0  0  0  0  0  0  0
    0.4133   -1.6801    1.2410 H   0  0  0  0  0  0  0  0  0  0  0  0
    1.5720    0.6877    1.1606 H   0  0  0  0  0  0  0  0  0  0  0  0
   -0.1333    1.0461    1.7839 H   0  0  0  0  0  0  0  0  0  0  0  0
    0.0260    2.5219   -1.4639 H   0  0  0  0  0  0  0  0  0  0  0  0
    0.2874   -1.1020   -1.5141 H   0  0  0  0  0  0  0  0  0  0  0  0
    2.3592   -1.5120   -0.2834 H   0  0  0  0  0  0  0  0  0  0  0  0
  1  2  2  0
  2  3  1  0
  3  4  1  0
  4  5  1  0
  5  6  1  0
  6  7  1  0
  6  8  1  0
  8  9  1  0
  6  2  1  0
  8  4  1  0
  3 10  1  0
  3 11  1  0
  4 12  1  0
  5 13  1  0
  5 14  1  0
  7 15  1  0
  8 16  1  0
  9 17  1  0
M  END
