
     RDKit          3D

 15 16  0  0  0  0  0  0  0  0999 V2000
    0.1167    2.7061   -0.2440 O   0  0  0  0  0  0  0  0  0  0  0  0
   -0.0591    1.5103   -0.1890 C   0  0  0  0  0  0  0  0  0  0  0  0
   -0.2885    0.5519    0.9071 C   0  0  0  0  0  0  0  0  0  0  0  0
    0.9080   -0.0639    1.2121 O   0  0  0  0  0  0  0  0  0  0  0  0
    1.5726   -0.5728    0.1415 C   0  0  0  0  0  0  0  0  0  0  0  0
    1.0043   -0.4207   -1.0827 O   0  0  0  0  0  0  0  0  0  0  0  0
   -0.1487    0.3453   -1.1069 C   0  0  0  0  0  0  0  0  0  0  0  0
   -1.1027   -0.2665   -0.1034 C   0  0  0  0  0  0  0  0  0  0  0  0
   -0.9973   -1.6125    0.0986 O   0  0  0  0  0  0  0  0  0  0  0  0
   -0.9036    0.8440    1.7381 H   0  0  0  0  0  0  0  0  0  0  0  0
    2.6055   -0.1164    0.0944 H   0  0  0  0  0  0  0  0  0  0  0  0
    1.7815   -1.6619    0.3602 H   0  0  0  0  0  0  0  0  0  0  0  0
   -0.5271    0.5234   -2.1041 H   0  0  0  0  0  0  0  0  0  0  0  0
   -2.0990    0.1704   -0.1890 H   0  0  0  0  0  0  0  0  0  0  0  0
   -1.8627   -1.9366    0.4670 H   0  0  0  0  0  0  0  0  0  0  0  0
  1  2  2  0
  2  3  1  0
  3  4  1  0
  4  5  1  0
  5  6  1  0
  6  7  1  0
  7  8  1  0
  8  9  1  0
  7  2  1  0
  8  3  1  0
  3 10  1  0
  5 11  1  0
  5 12  1  0
  7 13  1  0
  8 14  1  0
  9 15  1  0
M  END
