
     RDKit          3D

 18 18  0  0  0  0  0  0  0  0999 V2000
   -2.2727   -1.5065   -0.5393 O   0  0  0  0  0  0  0  0  0  0  0  0
   -1.3240   -0.8121   -0.2813 C   0  0  0  0  0  0  0  0  0  0  0  0
   -1.6305    0.4889    0.3235 C   0  0  0  0  0  0  0  0  0  0  0  0
   -0.6598    1.5507   -0.0384 C   0  0  0  0  0  0  0  0  0  0  0  0
    0.6568    1.4316   -0.1040 C   0  0  0  0  0  0  0  0  0  0  0  0
    1.6050    0.3260    0.1268 C   0  0  0  0  0  0  0  0  0  0  0  0
    0.9461   -0.9607    0.4971 C   0  0  0  0  0  0  0  0  0  0  0  0
   -0.0125   -1.3880   -0.6176 C   0  0  0  0  0  0  0  0  0  0  0  0
   -2.6576    0.7956   -0.0295 H   0  0  0  0  0  0  0  0  0  0  0  0
   -1.7123    0.4581    1.4325 H   0  0  0  0  0  0  0  0  0  0  0  0
   -1.1041    2.5170   -0.2688 H   0  0  0  0  0  0  0  0  0  0  0  0
    1.1432    2.3598   -0.3934 H   0  0  0  0  0  0  0  0  0  0  0  0
    2.3122    0.5872    0.9586 H   0  0  0  0  0  0  0  0  0  0  0  0
    2.2101    0.1641   -0.8103 H   0  0  0  0  0  0  0  0  0  0  0  0
    0.4190   -0.8399    1.4605 H   0  0  0  0  0  0  0  0  0  0  0  0
    1.7243   -1.7360    0.5986 H   0  0  0  0  0  0  0  0  0  0  0  0
    0.3778   -0.9476   -1.5718 H   0  0  0  0  0  0  0  0  0  0  0  0
   -0.0210   -2.4880   -0.7431 H   0  0  0  0  0  0  0  0  0  0  0  0
  1  2  2  0
  2  3  1  0
  3  4  1  0
  4  5  2  0
  5  6  1  0
  6  7  1  0
  7  8  1  0
  8  2  1  0
  3  9  1  0
  3 10  1  0
  4 11  1  0
  5 12  1  0
  6 13  1  0
  6 14  1  0
  7 15  1  0
  7 16  1  0
  8 17  1  0
  8 18  1  0
M  END
