
     RDKit          3D

 17 19  0  0  0  0  0  0  0  0999 V2000
    3.4237   -0.2711   -0.2090 O   0  0  0  0  0  0  0  0  0  0  0  0
    2.2142   -0.3128    0.0030 C   0  0  0  0  0  0  0  0  0  0  0  0
    1.2195   -1.4015   -0.0134 C   0  0  0  0  0  0  0  0  0  0  0  0
    0.0286   -0.9245   -0.2619 C   0  0  0  0  0  0  0  0  0  0  0  0
    0.1745    0.5882   -0.4472 C   0  0  0  0  0  0  0  0  0  0  0  0
    1.3719    0.9181    0.3787 C   0  0  0  0  0  0  0  0  0  0  0  0
   -1.2088    0.7807   -0.0182 C   0  0  0  0  0  0  0  0  0  0  0  0
   -2.0843   -0.1494    0.7216 C   0  0  0  0  0  0  0  0  0  0  0  0
   -1.4339   -0.6362   -0.5147 C   0  0  0  0  0  0  0  0  0  0  0  0
    1.4754   -2.4223    0.1569 H   0  0  0  0  0  0  0  0  0  0  0  0
    0.3384    0.7959   -1.5610 H   0  0  0  0  0  0  0  0  0  0  0  0
    1.8815    1.8307    0.0491 H   0  0  0  0  0  0  0  0  0  0  0  0
    1.1200    0.8852    1.4525 H   0  0  0  0  0  0  0  0  0  0  0  0
   -1.7281    1.6345   -0.5579 H   0  0  0  0  0  0  0  0  0  0  0  0
   -1.7439   -0.5968    1.6739 H   0  0  0  0  0  0  0  0  0  0  0  0
   -3.1768    0.0169    0.6334 H   0  0  0  0  0  0  0  0  0  0  0  0
   -1.8721   -0.7357   -1.4861 H   0  0  0  0  0  0  0  0  0  0  0  0
  1  2  2  0
  2  3  1  0
  3  4  2  0
  4  5  1  0
  5  6  1  0
  5  7  1  0
  7  8  1  0
  8  9  1  0
  6  2  1  0
  9  7  1  0
  9  4  1  0
  3 10  1  0
  5 11  1  0
  6 12  1  0
  6 13  1  0
  7 14  1  0
  8 15  1  0
  8 16  1  0
  9 17  1  0
M  END
