
     RDKit          3D

 15 17  0  0  0  0  0  0  0  0999 V2000
    2.6836    1.0142   -0.7007 O   0  0  0  0  0  0  0  0  0  0  0  0
    1.6876    0.3219   -0.4238 C   0  0  0  0  0  0  0  0  0  0  0  0
    1.6549   -0.9507    0.0642 O   0  0  0  0  0  0  0  0  0  0  0  0
    0.4721   -1.1283    0.7810 C   0  0  0  0  0  0  0  0  0  0  0  0
   -0.5300   -0.1234    0.3518 C   0  0  0  0  0  0  0  0  0  0  0  0
   -1.3768   -0.4643   -0.8740 C   0  0  0  0  0  0  0  0  0  0  0  0
   -0.3987    0.2053   -1.6273 O   0  0  0  0  0  0  0  0  0  0  0  0
    0.2963    0.7865   -0.5856 C   0  0  0  0  0  0  0  0  0  0  0  0
   -0.3814    1.3251    0.6071 C   0  0  0  0  0  0  0  0  0  0  0  0
    0.6609   -1.0105    1.8697 H   0  0  0  0  0  0  0  0  0  0  0  0
    0.0603   -2.1440    0.6364 H   0  0  0  0  0  0  0  0  0  0  0  0
   -1.4777   -1.5360   -1.0777 H   0  0  0  0  0  0  0  0  0  0  0  0
   -2.3188    0.1269   -0.9387 H   0  0  0  0  0  0  0  0  0  0  0  0
   -1.2968    1.9313    0.4838 H   0  0  0  0  0  0  0  0  0  0  0  0
    0.2646    1.6461    1.4336 H   0  0  0  0  0  0  0  0  0  0  0  0
  1  2  2  0
  2  3  1  0
  3  4  1  0
  4  5  1  0
  5  6  1  0
  6  7  1  0
  7  8  1  0
  8  9  1  0
  8  2  1  0
  8  5  1  0
  9  5  1  0
  4 10  1  0
  4 11  1  0
  6 12  1  0
  6 13  1  0
  9 14  1  0
  9 15  1  0
M  END
