
     RDKit          3D

 17 18  0  0  0  0  0  0  0  0999 V2000
   -1.2901    1.9271   -0.9183 O   0  0  0  0  0  0  0  0  0  0  0  0
   -1.1801    0.8937   -0.3161 C   0  0  0  0  0  0  0  0  0  0  0  0
   -2.1533   -0.2176   -0.2915 C   0  0  0  0  0  0  0  0  0  0  0  0
   -1.4359   -1.3716   -0.0868 O   0  0  0  0  0  0  0  0  0  0  0  0
   -0.1713   -1.0742    0.3339 C   0  0  0  0  0  0  0  0  0  0  0  0
    0.8026   -1.3186   -0.6279 O   0  0  0  0  0  0  0  0  0  0  0  0
    1.8674   -0.4778   -0.3708 C   0  0  0  0  0  0  0  0  0  0  0  0
    1.2770    0.8356    0.1006 C   0  0  0  0  0  0  0  0  0  0  0  0
   -0.0849    0.4225    0.5547 C   0  0  0  0  0  0  0  0  0  0  0  0
   -2.8546    0.0008    0.5673 H   0  0  0  0  0  0  0  0  0  0  0  0
   -2.7414   -0.2722   -1.2410 H   0  0  0  0  0  0  0  0  0  0  0  0
    0.0873   -1.5945    1.2771 H   0  0  0  0  0  0  0  0  0  0  0  0
    2.4345   -0.2437   -1.3046 H   0  0  0  0  0  0  0  0  0  0  0  0
    2.5692   -0.9220    0.3430 H   0  0  0  0  0  0  0  0  0  0  0  0
    1.8679    1.1151    1.0212 H   0  0  0  0  0  0  0  0  0  0  0  0
    1.2980    1.6221   -0.6540 H   0  0  0  0  0  0  0  0  0  0  0  0
   -0.2923    0.6752    1.6132 H   0  0  0  0  0  0  0  0  0  0  0  0
  1  2  2  0
  2  3  1  0
  3  4  1  0
  4  5  1  0
  5  6  1  0
  6  7  1  0
  7  8  1  0
  8  9  1  0
  9  2  1  0
  9  5  1  0
  3 10  1  0
  3 11  1  0
  5 12  1  0
  7 13  1  0
  7 14  1  0
  8 15  1  0
  8 16  1  0
  9 17  1  0
M  END
