
     RDKit          3D

 19 20  0  0  0  0  0  0  0  0999 V2000
   -1.7209    1.9134   -1.2917 O   0  0  0  0  0  0  0  0  0  0  0  0
   -1.3356    0.9345   -0.6769 C   0  0  0  0  0  0  0  0  0  0  0  0
   -1.7779    0.3550    0.6223 C   0  0  0  0  0  0  0  0  0  0  0  0
   -0.5624   -0.5449    0.5615 C   0  0  0  0  0  0  0  0  0  0  0  0
    0.5971    0.0437    1.2989 C   0  0  0  0  0  0  0  0  0  0  0  0
    1.7324   -0.2402    0.3053 C   0  0  0  0  0  0  0  0  0  0  0  0
    1.1131    0.3572   -0.9438 C   0  0  0  0  0  0  0  0  0  0  0  0
   -0.3010   -0.1145   -0.8855 C   0  0  0  0  0  0  0  0  0  0  0  0
   -0.6483   -1.1011   -1.8080 O   0  0  0  0  0  0  0  0  0  0  0  0
   -1.7610    1.0271    1.4844 H   0  0  0  0  0  0  0  0  0  0  0  0
   -2.7469   -0.2060    0.5341 H   0  0  0  0  0  0  0  0  0  0  0  0
   -0.7424   -1.6124    0.6492 H   0  0  0  0  0  0  0  0  0  0  0  0
    0.4837    1.1536    1.2937 H   0  0  0  0  0  0  0  0  0  0  0  0
    0.7891   -0.3739    2.2805 H   0  0  0  0  0  0  0  0  0  0  0  0
    2.6600    0.2593    0.5860 H   0  0  0  0  0  0  0  0  0  0  0  0
    1.8411   -1.3405    0.1843 H   0  0  0  0  0  0  0  0  0  0  0  0
    1.1285    1.4629   -0.8227 H   0  0  0  0  0  0  0  0  0  0  0  0
    1.6557    0.0281   -1.8503 H   0  0  0  0  0  0  0  0  0  0  0  0
   -0.4041   -2.0013   -1.5212 H   0  0  0  0  0  0  0  0  0  0  0  0
  1  2  2  0
  2  3  1  0
  3  4  1  0
  4  5  1  0
  5  6  1  0
  6  7  1  0
  7  8  1  0
  8  9  1  0
  8  2  1  0
  8  4  1  0
  3 10  1  0
  3 11  1  0
  4 12  1  0
  5 13  1  0
  5 14  1  0
  6 15  1  0
  6 16  1  0
  7 17  1  0
  7 18  1  0
  9 19  1  0
M  END
