
     RDKit          3D

 14 15  0  0  0  0  0  0  0  0999 V2000
   -1.6737    2.1435    0.3352 O   0  0  0  0  0  0  0  0  0  0  0  0
   -1.2840    0.9510    0.1470 C   0  0  0  0  0  0  0  0  0  0  0  0
   -1.6668   -0.2105    0.7600 O   0  0  0  0  0  0  0  0  0  0  0  0
   -0.6611   -1.1845    0.6163 C   0  0  0  0  0  0  0  0  0  0  0  0
    0.2812   -0.7416   -0.4361 C   0  0  0  0  0  0  0  0  0  0  0  0
    1.1153    0.4520   -0.3528 C   0  0  0  0  0  0  0  0  0  0  0  0
    1.3985    1.0833    0.8700 O   0  0  0  0  0  0  0  0  0  0  0  0
   -0.2642    0.5985   -0.8535 C   0  0  0  0  0  0  0  0  0  0  0  0
   -0.2133   -1.4307    1.5885 H   0  0  0  0  0  0  0  0  0  0  0  0
   -1.1809   -2.1208    0.2729 H   0  0  0  0  0  0  0  0  0  0  0  0
    0.5445   -1.4905   -1.2263 H   0  0  0  0  0  0  0  0  0  0  0  0
    1.9108    0.5829   -1.0921 H   0  0  0  0  0  0  0  0  0  0  0  0
    2.2301    0.7250    1.2791 H   0  0  0  0  0  0  0  0  0  0  0  0
   -0.5363    0.6425   -1.9082 H   0  0  0  0  0  0  0  0  0  0  0  0
  1  2  2  0
  2  3  1  0
  3  4  1  0
  4  5  1  0
  5  6  1  0
  6  7  1  0
  6  8  1  0
  8  2  1  0
  8  5  1  0
  4  9  1  0
  4 10  1  0
  5 11  1  0
  6 12  1  0
  7 13  1  0
  8 14  1  0
M  END
