
     RDKit          3D

 15 16  0  0  0  0  0  0  0  0999 V2000
    1.9056   -1.5694   -1.3948 O   0  0  0  0  0  0  0  0  0  0  0  0
    1.1875   -0.8949   -0.6372 C   0  0  0  0  0  0  0  0  0  0  0  0
    1.4941    0.5296   -0.3819 C   0  0  0  0  0  0  0  0  0  0  0  0
    0.6015    1.2668    0.2558 C   0  0  0  0  0  0  0  0  0  0  0  0
   -0.5375    0.5602    0.8880 C   0  0  0  0  0  0  0  0  0  0  0  0
   -1.5214    0.2113   -0.2106 C   0  0  0  0  0  0  0  0  0  0  0  0
   -1.1929   -1.0861   -0.5745 O   0  0  0  0  0  0  0  0  0  0  0  0
   -0.0115   -1.4148    0.0715 C   0  0  0  0  0  0  0  0  0  0  0  0
   -0.1325   -0.7224    1.2974 O   0  0  0  0  0  0  0  0  0  0  0  0
    2.4046    0.9812   -0.6922 H   0  0  0  0  0  0  0  0  0  0  0  0
    0.6615    2.3418    0.3370 H   0  0  0  0  0  0  0  0  0  0  0  0
   -0.9685    1.1426    1.6981 H   0  0  0  0  0  0  0  0  0  0  0  0
   -1.3856    0.8614   -1.0959 H   0  0  0  0  0  0  0  0  0  0  0  0
   -2.5643    0.2950    0.1713 H   0  0  0  0  0  0  0  0  0  0  0  0
    0.0593   -2.5024    0.2680 H   0  0  0  0  0  0  0  0  0  0  0  0
  1  2  2  0
  2  3  1  0
  3  4  2  0
  4  5  1  0
  5  6  1  0
  6  7  1  0
  7  8  1  0
  8  9  1  0
  8  2  1  0
  9  5  1  0
  3 10  1  0
  4 11  1  0
  5 12  1  0
  6 13  1  0
  6 14  1  0
  8 15  1  0
M  END
