
     RDKit          3D

 13 14  0  0  0  0  0  0  0  0999 V2000
   -0.1227    2.5797   -0.0872 O   0  0  0  0  0  0  0  0  0  0  0  0
   -0.0003    1.3679   -0.0160 C   0  0  0  0  0  0  0  0  0  0  0  0
    0.9803    0.3115   -0.4128 C   0  0  0  0  0  0  0  0  0  0  0  0
    2.1366    0.3111    0.3805 O   0  0  0  0  0  0  0  0  0  0  0  0
    0.0331   -0.7521    0.0360 C   0  0  0  0  0  0  0  0  0  0  0  0
   -1.3890   -0.7578   -0.3519 C   0  0  0  0  0  0  0  0  0  0  0  0
   -0.8552    0.3150    0.5504 C   0  0  0  0  0  0  0  0  0  0  0  0
    1.2033    0.3039   -1.5161 H   0  0  0  0  0  0  0  0  0  0  0  0
    2.5384   -0.5969    0.3286 H   0  0  0  0  0  0  0  0  0  0  0  0
    0.4232   -1.5629    0.6753 H   0  0  0  0  0  0  0  0  0  0  0  0
   -1.7328   -0.3649   -1.3365 H   0  0  0  0  0  0  0  0  0  0  0  0
   -2.0236   -1.5097    0.1515 H   0  0  0  0  0  0  0  0  0  0  0  0
   -1.1914    0.3553    1.5981 H   0  0  0  0  0  0  0  0  0  0  0  0
  1  2  2  0
  2  3  1  0
  3  4  1  0
  3  5  1  0
  5  6  1  0
  6  7  1  0
  7  2  1  0
  7  5  1  0
  3  8  1  0
  4  9  1  0
  5 10  1  0
  6 11  1  0
  6 12  1  0
  7 13  1  0
M  END
