
     RDKit          3D

 17 18  0  0  0  0  0  0  0  0999 V2000
    3.5230   -0.5043   -0.0483 O   0  0  0  0  0  0  0  0  0  0  0  0
    2.2834   -0.3430   -0.1533 C   0  0  0  0  0  0  0  0  0  0  0  0
    1.6832    1.0172   -0.3737 C   0  0  0  0  0  0  0  0  0  0  0  0
    0.2371    0.6879   -0.3012 C   0  0  0  0  0  0  0  0  0  0  0  0
   -0.9754    1.1352   -0.0183 C   0  0  0  0  0  0  0  0  0  0  0  0
   -2.0061    0.0790   -0.2187 C   0  0  0  0  0  0  0  0  0  0  0  0
   -1.1790   -1.1840   -0.1664 C   0  0  0  0  0  0  0  0  0  0  0  0
    0.1474   -0.7556   -0.7317 C   0  0  0  0  0  0  0  0  0  0  0  0
    1.2587   -1.2982   -0.0961 O   0  0  0  0  0  0  0  0  0  0  0  0
    1.8787    1.4065   -1.3723 H   0  0  0  0  0  0  0  0  0  0  0  0
    2.0049    1.7158    0.4228 H   0  0  0  0  0  0  0  0  0  0  0  0
   -1.1389    2.1713    0.3194 H   0  0  0  0  0  0  0  0  0  0  0  0
   -2.5505    0.1970   -1.1657 H   0  0  0  0  0  0  0  0  0  0  0  0
   -2.6619    0.1102    0.6787 H   0  0  0  0  0  0  0  0  0  0  0  0
   -1.1147   -1.6293    0.8277 H   0  0  0  0  0  0  0  0  0  0  0  0
   -1.6346   -1.9281   -0.8527 H   0  0  0  0  0  0  0  0  0  0  0  0
    0.2447   -0.8776   -1.8093 H   0  0  0  0  0  0  0  0  0  0  0  0
  1  2  2  0
  2  3  1  0
  3  4  1  0
  4  5  2  0
  5  6  1  0
  6  7  1  0
  7  8  1  0
  8  9  1  0
  9  2  1  0
  8  4  1  0
  3 10  1  0
  3 11  1  0
  5 12  1  0
  6 13  1  0
  6 14  1  0
  7 15  1  0
  7 16  1  0
  8 17  1  0
M  END
