
     RDKit          3D

 17 18  0  0  0  0  0  0  0  0999 V2000
   -2.4865    1.1018   -0.8473 O   0  0  0  0  0  0  0  0  0  0  0  0
   -1.6494    0.4487   -0.2684 C   0  0  0  0  0  0  0  0  0  0  0  0
   -1.7149   -0.9840    0.0213 C   0  0  0  0  0  0  0  0  0  0  0  0
   -0.5187   -1.3550    0.6125 O   0  0  0  0  0  0  0  0  0  0  0  0
    0.1813   -0.2362    0.9680 C   0  0  0  0  0  0  0  0  0  0  0  0
    1.4643   -0.0676    0.2184 C   0  0  0  0  0  0  0  0  0  0  0  0
    1.9078   -1.1925   -0.4863 O   0  0  0  0  0  0  0  0  0  0  0  0
    0.7914    0.9417   -0.6749 C   0  0  0  0  0  0  0  0  0  0  0  0
   -0.3882    0.9632    0.2654 C   0  0  0  0  0  0  0  0  0  0  0  0
   -1.8557   -1.5284   -0.9349 H   0  0  0  0  0  0  0  0  0  0  0  0
   -2.5572   -1.2741    0.6794 H   0  0  0  0  0  0  0  0  0  0  0  0
    0.2624   -0.0418    2.0705 H   0  0  0  0  0  0  0  0  0  0  0  0
    2.2479    0.3695    0.8917 H   0  0  0  0  0  0  0  0  0  0  0  0
    2.8188   -1.4678   -0.1573 H   0  0  0  0  0  0  0  0  0  0  0  0
    0.5707    0.5554   -1.6943 H   0  0  0  0  0  0  0  0  0  0  0  0
    1.3516    1.9016   -0.6879 H   0  0  0  0  0  0  0  0  0  0  0  0
   -0.4259    1.8654    0.8921 H   0  0  0  0  0  0  0  0  0  0  0  0
  1  2  2  0
  2  3  1  0
  3  4  1  0
  4  5  1  0
  5  6  1  0
  6  7  1  0
  6  8  1  0
  8  9  1  0
  9  2  1  0
  9  5  1  0
  3 10  1  0
  3 11  1  0
  5 12  1  0
  6 13  1  0
  7 14  1  0
  8 15  1  0
  8 16  1  0
  9 17  1  0
M  END
