
     RDKit          3D

 16 16  0  0  0  0  0  0  0  0999 V2000
    0.2789   -2.5537    0.3072 O   0  0  0  0  0  0  0  0  0  0  0  0
   -0.0682   -1.4163    0.0561 C   0  0  0  0  0  0  0  0  0  0  0  0
   -1.3679   -0.7461    0.2016 C   0  0  0  0  0  0  0  0  0  0  0  0
   -0.9773    0.6786    0.5046 C   0  0  0  0  0  0  0  0  0  0  0  0
    0.3282    0.9452   -0.1844 C   0  0  0  0  0  0  0  0  0  0  0  0
    1.1544    1.6447    0.6971 O   0  0  0  0  0  0  0  0  0  0  0  0
    0.9001   -0.4128   -0.5070 C   0  0  0  0  0  0  0  0  0  0  0  0
    2.1702   -0.5942   -0.0057 O   0  0  0  0  0  0  0  0  0  0  0  0
   -1.9180   -1.1825    1.0618 H   0  0  0  0  0  0  0  0  0  0  0  0
   -2.0266   -0.8416   -0.6798 H   0  0  0  0  0  0  0  0  0  0  0  0
   -1.7903    1.3534    0.1922 H   0  0  0  0  0  0  0  0  0  0  0  0
   -0.8548    0.7467    1.6142 H   0  0  0  0  0  0  0  0  0  0  0  0
    0.2307    1.5802   -1.0900 H   0  0  0  0  0  0  0  0  0  0  0  0
    0.8343    2.5836    0.7188 H   0  0  0  0  0  0  0  0  0  0  0  0
    0.8744   -0.5525   -1.6097 H   0  0  0  0  0  0  0  0  0  0  0  0
    2.2320   -1.2329    0.7243 H   0  0  0  0  0  0  0  0  0  0  0  0
  1  2  2  0
  2  3  1  0
  3  4  1  0
  4  5  1  0
  5  6  1  0
  5  7  1  0
  7  8  1  0
  7  2  1  0
  3  9  1  0
  3 10  1  0
  4 11  1  0
  4 12  1  0
  5 13  1  0
  6 14  1  0
  7 15  1  0
  8 16  1  0
M  END
