
     RDKit          3D

 17 18  0  0  0  0  0  0  0  0999 V2000
    0.4411   -2.5891    1.0954 O   0  0  0  0  0  0  0  0  0  0  0  0
    0.3903   -1.5038    0.5372 C   0  0  0  0  0  0  0  0  0  0  0  0
    1.3549   -0.4012    0.6502 C   0  0  0  0  0  0  0  0  0  0  0  0
    0.6319    0.8268    0.1362 C   0  0  0  0  0  0  0  0  0  0  0  0
    1.4481    1.4441   -0.8275 O   0  0  0  0  0  0  0  0  0  0  0  0
   -0.6244    0.3438   -0.5278 C   0  0  0  0  0  0  0  0  0  0  0  0
   -0.9529    1.0113   -1.7003 O   0  0  0  0  0  0  0  0  0  0  0  0
   -1.7540   -0.1973    0.2617 C   0  0  0  0  0  0  0  0  0  0  0  0
   -0.7081   -1.1105   -0.3878 C   0  0  0  0  0  0  0  0  0  0  0  0
    2.2209   -0.6281    0.0104 H   0  0  0  0  0  0  0  0  0  0  0  0
    1.6633   -0.2888    1.7163 H   0  0  0  0  0  0  0  0  0  0  0  0
    0.4383    1.5444    0.9440 H   0  0  0  0  0  0  0  0  0  0  0  0
    2.2698    1.8050   -0.4637 H   0  0  0  0  0  0  0  0  0  0  0  0
   -1.2844    1.9191   -1.4092 H   0  0  0  0  0  0  0  0  0  0  0  0
   -2.7446   -0.2291   -0.2387 H   0  0  0  0  0  0  0  0  0  0  0  0
   -1.7578   -0.1517    1.3810 H   0  0  0  0  0  0  0  0  0  0  0  0
   -1.0325   -1.7949   -1.1774 H   0  0  0  0  0  0  0  0  0  0  0  0
  1  2  2  0
  2  3  1  0
  3  4  1  0
  4  5  1  0
  4  6  1  0
  6  7  1  0
  6  8  1  0
  8  9  1  0
  9  2  1  0
  9  6  1  0
  3 10  1  0
  3 11  1  0
  4 12  1  0
  5 13  1  0
  7 14  1  0
  8 15  1  0
  8 16  1  0
  9 17  1  0
M  END
