
     RDKit          3D

 19 20  0  0  0  0  0  0  0  0999 V2000
   -0.1985   -0.1190    2.4605 O   0  0  0  0  0  0  0  0  0  0  0  0
   -0.5077    0.0258    1.2961 C   0  0  0  0  0  0  0  0  0  0  0  0
   -0.9570   -0.8922    0.2237 C   0  0  0  0  0  0  0  0  0  0  0  0
    0.2616   -1.5341   -0.3828 C   0  0  0  0  0  0  0  0  0  0  0  0
    1.4488   -0.6511   -0.1881 C   0  0  0  0  0  0  0  0  0  0  0  0
    1.3747    0.5403   -0.8838 O   0  0  0  0  0  0  0  0  0  0  0  0
    0.7350    1.5513   -0.2247 C   0  0  0  0  0  0  0  0  0  0  0  0
   -0.5939    1.1631    0.3689 C   0  0  0  0  0  0  0  0  0  0  0  0
   -1.4251    0.3097   -0.5527 C   0  0  0  0  0  0  0  0  0  0  0  0
   -1.7699   -1.5823    0.5270 H   0  0  0  0  0  0  0  0  0  0  0  0
    0.1075   -1.8156   -1.4489 H   0  0  0  0  0  0  0  0  0  0  0  0
    0.4474   -2.4804    0.1646 H   0  0  0  0  0  0  0  0  0  0  0  0
    2.3401   -1.2064   -0.6040 H   0  0  0  0  0  0  0  0  0  0  0  0
    1.6383   -0.5453    0.8829 H   0  0  0  0  0  0  0  0  0  0  0  0
    0.5208    2.3583   -0.9763 H   0  0  0  0  0  0  0  0  0  0  0  0
    1.3263    2.0337    0.5683 H   0  0  0  0  0  0  0  0  0  0  0  0
   -1.1149    2.0393    0.7505 H   0  0  0  0  0  0  0  0  0  0  0  0
   -1.1341    0.3241   -1.6020 H   0  0  0  0  0  0  0  0  0  0  0  0
   -2.4992    0.4810   -0.3790 H   0  0  0  0  0  0  0  0  0  0  0  0
  1  2  2  0
  2  3  1  0
  3  4  1  0
  4  5  1  0
  5  6  1  0
  6  7  1  0
  7  8  1  0
  8  9  1  0
  8  2  1  0
  9  3  1  0
  3 10  1  0
  4 11  1  0
  4 12  1  0
  5 13  1  0
  5 14  1  0
  7 15  1  0
  7 16  1  0
  8 17  1  0
  9 18  1  0
  9 19  1  0
M  END
