
     RDKit          3D

 13 14  0  0  0  0  0  0  0  0999 V2000
   -0.0222    2.0790   -1.3267 O   0  0  0  0  0  0  0  0  0  0  0  0
   -0.0340    1.1851   -0.5075 C   0  0  0  0  0  0  0  0  0  0  0  0
    1.0856    0.2001   -0.2156 C   0  0  0  0  0  0  0  0  0  0  0  0
    0.3321   -1.0033    0.3662 C   0  0  0  0  0  0  0  0  0  0  0  0
   -1.0448   -0.7232   -0.1052 C   0  0  0  0  0  0  0  0  0  0  0  0
   -2.0659   -0.0768    0.3810 O   0  0  0  0  0  0  0  0  0  0  0  0
   -1.0548    0.7385    0.4492 C   0  0  0  0  0  0  0  0  0  0  0  0
    1.7521    0.6040    0.5680 H   0  0  0  0  0  0  0  0  0  0  0  0
    1.5955   -0.0444   -1.1496 H   0  0  0  0  0  0  0  0  0  0  0  0
    0.4682   -1.1064    1.4346 H   0  0  0  0  0  0  0  0  0  0  0  0
    0.7336   -1.8878   -0.1647 H   0  0  0  0  0  0  0  0  0  0  0  0
   -1.0898   -0.8148   -1.2351 H   0  0  0  0  0  0  0  0  0  0  0  0
   -0.6555    0.8500    1.5053 H   0  0  0  0  0  0  0  0  0  0  0  0
  1  2  2  0
  2  3  1  0
  3  4  1  0
  4  5  1  0
  5  6  1  0
  6  7  1  0
  7  2  1  0
  7  5  1  0
  3  8  1  0
  3  9  1  0
  4 10  1  0
  4 11  1  0
  5 12  1  0
  7 13  1  0
M  END
