
     RDKit          3D

 15 15  0  0  0  0  0  0  0  0999 V2000
   -2.7784    0.8088   -0.1456 O   0  0  0  0  0  0  0  0  0  0  0  0
   -1.5827    0.4747   -0.0173 C   0  0  0  0  0  0  0  0  0  0  0  0
   -0.5504    1.4877    0.1865 C   0  0  0  0  0  0  0  0  0  0  0  0
    0.7325    1.2518    0.0164 C   0  0  0  0  0  0  0  0  0  0  0  0
    1.1488   -0.1228   -0.4066 C   0  0  0  0  0  0  0  0  0  0  0  0
    2.4739   -0.3682   -0.0659 O   0  0  0  0  0  0  0  0  0  0  0  0
    0.2093   -1.0663    0.2121 C   0  0  0  0  0  0  0  0  0  0  0  0
    0.6098   -1.9175    0.9530 O   0  0  0  0  0  0  0  0  0  0  0  0
   -1.2284   -0.9702   -0.0755 C   0  0  0  0  0  0  0  0  0  0  0  0
   -0.8679    2.4654    0.4891 H   0  0  0  0  0  0  0  0  0  0  0  0
    1.4517    2.0394    0.1818 H   0  0  0  0  0  0  0  0  0  0  0  0
    1.0585   -0.1100   -1.5330 H   0  0  0  0  0  0  0  0  0  0  0  0
    2.5523   -1.0503    0.6640 H   0  0  0  0  0  0  0  0  0  0  0  0
   -1.4018   -1.3626   -1.1176 H   0  0  0  0  0  0  0  0  0  0  0  0
   -1.8272   -1.5600    0.6586 H   0  0  0  0  0  0  0  0  0  0  0  0
  1  2  2  0
  2  3  1  0
  3  4  2  0
  4  5  1  0
  5  6  1  0
  5  7  1  0
  7  8  2  0
  7  9  1  0
  9  2  1  0
  3 10  1  0
  4 11  1  0
  5 12  1  0
  6 13  1  0
  9 14  1  0
  9 15  1  0
M  END
