
     RDKit          3D

 15 16  0  0  0  0  0  0  0  0999 V2000
    2.6749    1.6272   -0.5030 O   0  0  0  0  0  0  0  0  0  0  0  0
    1.6205    0.9863   -0.2532 C   0  0  0  0  0  0  0  0  0  0  0  0
    1.6312   -0.3840    0.2990 C   0  0  0  0  0  0  0  0  0  0  0  0
    0.4729   -0.9745    0.5589 C   0  0  0  0  0  0  0  0  0  0  0  0
   -0.7474   -0.2881    0.3264 C   0  0  0  0  0  0  0  0  0  0  0  0
   -0.9834    0.5510    1.5035 O   0  0  0  0  0  0  0  0  0  0  0  0
   -1.7533   -0.0942   -0.6217 C   0  0  0  0  0  0  0  0  0  0  0  0
   -0.5194    0.4938   -0.9875 C   0  0  0  0  0  0  0  0  0  0  0  0
    0.3059    1.5068   -0.4659 O   0  0  0  0  0  0  0  0  0  0  0  0
    2.5978   -0.8819    0.4816 H   0  0  0  0  0  0  0  0  0  0  0  0
    0.5527   -1.9947    0.9513 H   0  0  0  0  0  0  0  0  0  0  0  0
   -1.0660   -0.1085    2.2118 H   0  0  0  0  0  0  0  0  0  0  0  0
   -2.6258    0.5505   -0.4328 H   0  0  0  0  0  0  0  0  0  0  0  0
   -2.1103   -1.0003   -1.1983 H   0  0  0  0  0  0  0  0  0  0  0  0
   -0.0504    0.0106   -1.8701 H   0  0  0  0  0  0  0  0  0  0  0  0
  1  2  2  0
  2  3  1  0
  3  4  2  0
  4  5  1  0
  5  6  1  0
  5  7  1  0
  7  8  1  0
  8  9  1  0
  9  2  1  0
  8  5  1  0
  3 10  1  0
  4 11  1  0
  6 12  1  0
  7 13  1  0
  7 14  1  0
  8 15  1  0
M  END
