
     RDKit          3D

 19 20  0  0  0  0  0  0  0  0999 V2000
    0.1358   -2.3425   -1.2440 O   0  0  0  0  0  0  0  0  0  0  0  0
   -0.0567   -1.3673   -0.5016 C   0  0  0  0  0  0  0  0  0  0  0  0
    1.0389   -1.1580    0.4769 C   0  0  0  0  0  0  0  0  0  0  0  0
    1.8556   -0.0003   -0.0401 C   0  0  0  0  0  0  0  0  0  0  0  0
    1.1987    1.3056    0.1348 C   0  0  0  0  0  0  0  0  0  0  0  0
   -0.0946    1.5615   -0.0698 C   0  0  0  0  0  0  0  0  0  0  0  0
   -1.2616    0.8292   -0.4830 C   0  0  0  0  0  0  0  0  0  0  0  0
   -1.9435   -0.0558    0.5820 C   0  0  0  0  0  0  0  0  0  0  0  0
   -1.2634   -0.5788   -0.6585 C   0  0  0  0  0  0  0  0  0  0  0  0
    0.6514   -0.8872    1.4643 H   0  0  0  0  0  0  0  0  0  0  0  0
    1.7062   -2.0352    0.5460 H   0  0  0  0  0  0  0  0  0  0  0  0
    2.8197   -0.0234    0.5381 H   0  0  0  0  0  0  0  0  0  0  0  0
    2.1299   -0.2308   -1.0876 H   0  0  0  0  0  0  0  0  0  0  0  0
    1.8444    2.1145    0.4591 H   0  0  0  0  0  0  0  0  0  0  0  0
   -0.2904    2.6313    0.1448 H   0  0  0  0  0  0  0  0  0  0  0  0
   -2.0280    1.4299   -1.0607 H   0  0  0  0  0  0  0  0  0  0  0  0
   -1.4219   -0.1012    1.5488 H   0  0  0  0  0  0  0  0  0  0  0  0
   -3.0275   -0.0669    0.6491 H   0  0  0  0  0  0  0  0  0  0  0  0
   -1.9928   -1.0245   -1.3988 H   0  0  0  0  0  0  0  0  0  0  0  0
  1  2  2  0
  2  3  1  0
  3  4  1  0
  4  5  1  0
  5  6  2  0
  6  7  1  0
  7  8  1  0
  8  9  1  0
  9  2  1  0
  9  7  1  0
  3 10  1  0
  3 11  1  0
  4 12  1  0
  4 13  1  0
  5 14  1  0
  6 15  1  0
  7 16  1  0
  8 17  1  0
  8 18  1  0
  9 19  1  0
M  END
