
     RDKit          3D

 19 20  0  0  0  0  0  0  0  0999 V2000
    1.7779    2.4284    0.3089 O   0  0  0  0  0  0  0  0  0  0  0  0
    1.2356    1.3481    0.2193 C   0  0  0  0  0  0  0  0  0  0  0  0
    1.9360    0.0802    0.6450 C   0  0  0  0  0  0  0  0  0  0  0  0
    1.1072   -1.0324    0.0706 C   0  0  0  0  0  0  0  0  0  0  0  0
   -0.0339   -0.3945   -0.6689 C   0  0  0  0  0  0  0  0  0  0  0  0
   -1.3557   -0.9469   -0.2272 C   0  0  0  0  0  0  0  0  0  0  0  0
   -2.1118    0.3405    0.1294 C   0  0  0  0  0  0  0  0  0  0  0  0
   -1.1155    1.1961    0.6494 O   0  0  0  0  0  0  0  0  0  0  0  0
   -0.1017    1.0421   -0.2762 C   0  0  0  0  0  0  0  0  0  0  0  0
    2.9577    0.1313    0.2329 H   0  0  0  0  0  0  0  0  0  0  0  0
    1.9499    0.0915    1.7509 H   0  0  0  0  0  0  0  0  0  0  0  0
    1.7541   -1.6336   -0.6095 H   0  0  0  0  0  0  0  0  0  0  0  0
    0.7374   -1.7486    0.8378 H   0  0  0  0  0  0  0  0  0  0  0  0
    0.1568   -0.4723   -1.7449 H   0  0  0  0  0  0  0  0  0  0  0  0
   -1.8815   -1.4946   -1.0391 H   0  0  0  0  0  0  0  0  0  0  0  0
   -1.2722   -1.5483    0.7088 H   0  0  0  0  0  0  0  0  0  0  0  0
   -2.5526    0.7937   -0.7713 H   0  0  0  0  0  0  0  0  0  0  0  0
   -2.8327    0.1591    0.9380 H   0  0  0  0  0  0  0  0  0  0  0  0
   -0.3548    1.6603   -1.1540 H   0  0  0  0  0  0  0  0  0  0  0  0
  1  2  2  0
  2  3  1  0
  3  4  1  0
  4  5  1  0
  5  6  1  0
  6  7  1  0
  7  8  1  0
  8  9  1  0
  9  2  1  0
  9  5  1  0
  3 10  1  0
  3 11  1  0
  4 12  1  0
  4 13  1  0
  5 14  1  0
  6 15  1  0
  6 16  1  0
  7 17  1  0
  7 18  1  0
  9 19  1  0
M  END
