
     RDKit          3D

 17 19  0  0  0  0  0  0  0  0999 V2000
    0.4863    2.5547   -0.5011 O   0  0  0  0  0  0  0  0  0  0  0  0
    0.3034    1.4200   -0.0969 C   0  0  0  0  0  0  0  0  0  0  0  0
    1.4672    0.6231    0.3121 C   0  0  0  0  0  0  0  0  0  0  0  0
    1.3416   -0.7496   -0.2455 C   0  0  0  0  0  0  0  0  0  0  0  0
    1.0671   -0.8118   -1.6024 O   0  0  0  0  0  0  0  0  0  0  0  0
    0.1079   -1.2526   -0.6616 C   0  0  0  0  0  0  0  0  0  0  0  0
   -1.1528   -0.4976   -0.4802 C   0  0  0  0  0  0  0  0  0  0  0  0
   -1.4673   -0.1254    0.9615 C   0  0  0  0  0  0  0  0  0  0  0  0
   -1.0582    0.8920   -0.0324 C   0  0  0  0  0  0  0  0  0  0  0  0
    1.5829    0.5781    1.4301 H   0  0  0  0  0  0  0  0  0  0  0  0
    2.4322    1.0892   -0.0385 H   0  0  0  0  0  0  0  0  0  0  0  0
    2.1538   -1.4495    0.0988 H   0  0  0  0  0  0  0  0  0  0  0  0
   -0.0591   -2.3717   -0.6286 H   0  0  0  0  0  0  0  0  0  0  0  0
   -2.0204   -0.7949   -1.1352 H   0  0  0  0  0  0  0  0  0  0  0  0
   -0.7777   -0.4546    1.7631 H   0  0  0  0  0  0  0  0  0  0  0  0
   -2.5249   -0.2163    1.2297 H   0  0  0  0  0  0  0  0  0  0  0  0
   -1.8822    1.5669   -0.3729 H   0  0  0  0  0  0  0  0  0  0  0  0
  1  2  2  0
  2  3  1  0
  3  4  1  0
  4  5  1  0
  5  6  1  0
  6  7  1  0
  7  8  1  0
  8  9  1  0
  9  2  1  0
  6  4  1  0
  9  7  1  0
  3 10  1  0
  3 11  1  0
  4 12  1  0
  6 13  1  0
  7 14  1  0
  8 15  1  0
  8 16  1  0
  9 17  1  0
M  END
