
     RDKit          3D

 15 16  0  0  0  0  0  0  0  0999 V2000
   -1.5534   -2.2085    0.7477 O   0  0  0  0  0  0  0  0  0  0  0  0
   -0.7070   -1.3866    0.3103 C   0  0  0  0  0  0  0  0  0  0  0  0
    0.6397   -1.4612    0.6390 O   0  0  0  0  0  0  0  0  0  0  0  0
    1.5753   -0.5232    0.1058 C   0  0  0  0  0  0  0  0  0  0  0  0
    0.8026    0.6076   -0.4901 C   0  0  0  0  0  0  0  0  0  0  0  0
   -0.0551    1.3132    0.5081 C   0  0  0  0  0  0  0  0  0  0  0  0
   -1.3027    0.9258    0.2421 C   0  0  0  0  0  0  0  0  0  0  0  0
   -1.1461   -0.3076   -0.5784 C   0  0  0  0  0  0  0  0  0  0  0  0
   -0.0958    0.0596   -1.4225 O   0  0  0  0  0  0  0  0  0  0  0  0
    2.2044   -0.1435    0.9448 H   0  0  0  0  0  0  0  0  0  0  0  0
    2.1570   -1.0042   -0.6819 H   0  0  0  0  0  0  0  0  0  0  0  0
    1.5034    1.2816   -1.0044 H   0  0  0  0  0  0  0  0  0  0  0  0
    0.2739    1.9847    1.2694 H   0  0  0  0  0  0  0  0  0  0  0  0
   -2.2322    1.4095    0.5585 H   0  0  0  0  0  0  0  0  0  0  0  0
   -2.0638   -0.5471   -1.1485 H   0  0  0  0  0  0  0  0  0  0  0  0
  1  2  2  0
  2  3  1  0
  3  4  1  0
  4  5  1  0
  5  6  1  0
  6  7  2  0
  7  8  1  0
  8  9  1  0
  8  2  1  0
  9  5  1  0
  4 10  1  0
  4 11  1  0
  5 12  1  0
  6 13  1  0
  7 14  1  0
  8 15  1  0
M  END
