
     RDKit          3D

 15 17  0  0  0  0  0  0  0  0999 V2000
    3.0246    0.2917   -0.4681 O   0  0  0  0  0  0  0  0  0  0  0  0
    1.8933   -0.2007   -0.2374 C   0  0  0  0  0  0  0  0  0  0  0  0
    1.2704   -1.3314   -0.7523 O   0  0  0  0  0  0  0  0  0  0  0  0
    0.2205   -1.1306    0.1651 C   0  0  0  0  0  0  0  0  0  0  0  0
    0.7732    0.1793    0.6388 C   0  0  0  0  0  0  0  0  0  0  0  0
   -0.1342    1.2550    0.0837 C   0  0  0  0  0  0  0  0  0  0  0  0
   -1.4045    0.5278   -0.2586 C   0  0  0  0  0  0  0  0  0  0  0  0
   -1.3608   -0.1129   -1.4908 O   0  0  0  0  0  0  0  0  0  0  0  0
   -1.1348   -0.9030   -0.3928 C   0  0  0  0  0  0  0  0  0  0  0  0
    0.1874   -1.8758    0.9901 H   0  0  0  0  0  0  0  0  0  0  0  0
    0.9966    0.2679    1.7134 H   0  0  0  0  0  0  0  0  0  0  0  0
   -0.2870    2.0723    0.8292 H   0  0  0  0  0  0  0  0  0  0  0  0
    0.3009    1.7143   -0.8356 H   0  0  0  0  0  0  0  0  0  0  0  0
   -2.3666    0.8449    0.1737 H   0  0  0  0  0  0  0  0  0  0  0  0
   -1.9790   -1.5986   -0.1583 H   0  0  0  0  0  0  0  0  0  0  0  0
  1  2  2  0
  2  3  1  0
  3  4  1  0
  4  5  1  0
  5  6  1  0
  6  7  1  0
  7  8  1  0
  8  9  1  0
  5  2  1  0
  9  7  1  0
  9  4  1  0
  4 10  1  0
  5 11  1  0
  6 12  1  0
  6 13  1  0
  7 14  1  0
  9 15  1  0
M  END
