
     RDKit          3D

 17 19  0  0  0  0  0  0  0  0999 V2000
   -0.4143    2.1497   -0.3921 O   0  0  0  0  0  0  0  0  0  0  0  0
    0.2474    1.1500   -0.4422 C   0  0  0  0  0  0  0  0  0  0  0  0
    1.6001    0.5462   -0.4612 C   0  0  0  0  0  0  0  0  0  0  0  0
    2.4204   -0.1079    0.4824 C   0  0  0  0  0  0  0  0  0  0  0  0
    1.0486   -0.3558    0.4291 C   0  0  0  0  0  0  0  0  0  0  0  0
   -0.1133   -0.2783   -0.5294 C   0  0  0  0  0  0  0  0  0  0  0  0
   -1.4242   -0.6381    0.1317 C   0  0  0  0  0  0  0  0  0  0  0  0
   -2.6912   -0.0119   -0.3232 C   0  0  0  0  0  0  0  0  0  0  0  0
   -2.3773   -1.3252   -0.6091 O   0  0  0  0  0  0  0  0  0  0  0  0
    2.2278    1.2893   -0.8230 H   0  0  0  0  0  0  0  0  0  0  0  0
    2.7969    0.3236    1.4600 H   0  0  0  0  0  0  0  0  0  0  0  0
    3.2572   -0.7328    0.0398 H   0  0  0  0  0  0  0  0  0  0  0  0
    0.9910   -1.3723    0.7479 H   0  0  0  0  0  0  0  0  0  0  0  0
    0.0405   -0.6990   -1.5267 H   0  0  0  0  0  0  0  0  0  0  0  0
   -1.3794   -0.8438    1.2240 H   0  0  0  0  0  0  0  0  0  0  0  0
   -3.5073    0.2099    0.4185 H   0  0  0  0  0  0  0  0  0  0  0  0
   -2.7229    0.6964   -1.1752 H   0  0  0  0  0  0  0  0  0  0  0  0
  1  2  2  0
  2  3  1  0
  3  4  1  0
  4  5  1  0
  5  6  1  0
  6  7  1  0
  7  8  1  0
  8  9  1  0
  6  2  1  0
  9  7  1  0
  5  3  1  0
  3 10  1  0
  4 11  1  0
  4 12  1  0
  5 13  1  0
  6 14  1  0
  7 15  1  0
  8 16  1  0
  8 17  1  0
M  END
