
     RDKit          3D

 17 18  0  0  0  0  0  0  0  0999 V2000
   -2.8810   -0.5311   -0.1899 O   0  0  0  0  0  0  0  0  0  0  0  0
   -1.6932   -0.1630   -0.0766 C   0  0  0  0  0  0  0  0  0  0  0  0
   -1.2868    1.2426   -0.1207 C   0  0  0  0  0  0  0  0  0  0  0  0
    0.0307    1.4492   -0.0278 C   0  0  0  0  0  0  0  0  0  0  0  0
    0.8908    0.2718    0.0430 C   0  0  0  0  0  0  0  0  0  0  0  0
    2.2422    0.5003    0.0828 O   0  0  0  0  0  0  0  0  0  0  0  0
    0.4022   -0.6959    1.1329 C   0  0  0  0  0  0  0  0  0  0  0  0
   -0.6263   -1.1552    0.1107 C   0  0  0  0  0  0  0  0  0  0  0  0
    0.4489   -0.8218   -0.9399 C   0  0  0  0  0  0  0  0  0  0  0  0
   -1.9851    2.0616   -0.2202 H   0  0  0  0  0  0  0  0  0  0  0  0
    0.4626    2.4265   -0.0045 H   0  0  0  0  0  0  0  0  0  0  0  0
    2.4606    1.3713   -0.3261 H   0  0  0  0  0  0  0  0  0  0  0  0
    1.1812   -1.4742    1.2557 H   0  0  0  0  0  0  0  0  0  0  0  0
    0.0132   -0.2224    2.0288 H   0  0  0  0  0  0  0  0  0  0  0  0
   -0.9054   -2.2028    0.1458 H   0  0  0  0  0  0  0  0  0  0  0  0
    1.1980   -1.6151   -1.0085 H   0  0  0  0  0  0  0  0  0  0  0  0
    0.0475   -0.4418   -1.8853 H   0  0  0  0  0  0  0  0  0  0  0  0
  1  2  2  0
  2  3  1  0
  3  4  2  0
  4  5  1  0
  5  6  1  0
  5  7  1  0
  7  8  1  0
  8  9  1  0
  8  2  1  0
  9  5  1  0
  3 10  1  0
  4 11  1  0
  6 12  1  0
  7 13  1  0
  7 14  1  0
  8 15  1  0
  9 16  1  0
  9 17  1  0
M  END
