
     RDKit          3D

 15 17  0  0  0  0  0  0  0  0999 V2000
    2.1641   -1.1661   -1.4327 O   0  0  0  0  0  0  0  0  0  0  0  0
    1.3758   -0.5217   -0.7248 C   0  0  0  0  0  0  0  0  0  0  0  0
    1.6747    0.6284    0.0865 C   0  0  0  0  0  0  0  0  0  0  0  0
    0.6271    1.0492    0.7543 C   0  0  0  0  0  0  0  0  0  0  0  0
   -0.5501    0.2181    0.4762 C   0  0  0  0  0  0  0  0  0  0  0  0
   -1.5496    0.6194   -0.5710 C   0  0  0  0  0  0  0  0  0  0  0  0
   -0.8778   -0.1666   -1.4775 O   0  0  0  0  0  0  0  0  0  0  0  0
   -0.0608   -0.8262   -0.5796 C   0  0  0  0  0  0  0  0  0  0  0  0
   -0.5286   -1.2523    0.7531 C   0  0  0  0  0  0  0  0  0  0  0  0
    2.6557    1.1084    0.1507 H   0  0  0  0  0  0  0  0  0  0  0  0
    0.5999    1.8926    1.4281 H   0  0  0  0  0  0  0  0  0  0  0  0
   -1.6314    1.6870   -0.7935 H   0  0  0  0  0  0  0  0  0  0  0  0
   -2.5409    0.1364   -0.3315 H   0  0  0  0  0  0  0  0  0  0  0  0
    0.2010   -1.7129    1.4099 H   0  0  0  0  0  0  0  0  0  0  0  0
   -1.5592   -1.6937    0.8518 H   0  0  0  0  0  0  0  0  0  0  0  0
  1  2  2  0
  2  3  1  0
  3  4  2  0
  4  5  1  0
  5  6  1  0
  6  7  1  0
  7  8  1  0
  8  9  1  0
  8  2  1  0
  8  5  1  0
  9  5  1  0
  3 10  1  0
  4 11  1  0
  6 12  1  0
  6 13  1  0
  9 14  1  0
  9 15  1  0
M  END
