
     RDKit          3D

 17 18  0  0  0  0  0  0  0  0999 V2000
    1.7930    2.0350    0.8051 O   0  0  0  0  0  0  0  0  0  0  0  0
    1.1451    0.9625    0.7795 C   0  0  0  0  0  0  0  0  0  0  0  0
    0.0875    0.5794    1.5947 O   0  0  0  0  0  0  0  0  0  0  0  0
   -0.6119   -0.5109    1.0202 C   0  0  0  0  0  0  0  0  0  0  0  0
   -1.9025   -0.0930    0.3048 C   0  0  0  0  0  0  0  0  0  0  0  0
   -0.9933    0.3779   -0.8384 C   0  0  0  0  0  0  0  0  0  0  0  0
   -0.0135   -0.6819   -0.3758 C   0  0  0  0  0  0  0  0  0  0  0  0
    1.3878   -0.1569   -0.1640 C   0  0  0  0  0  0  0  0  0  0  0  0
    1.9703    0.2342   -1.3437 O   0  0  0  0  0  0  0  0  0  0  0  0
   -0.6867   -1.4160    1.6156 H   0  0  0  0  0  0  0  0  0  0  0  0
   -2.4813   -0.9919    0.0748 H   0  0  0  0  0  0  0  0  0  0  0  0
   -2.4509    0.7204    0.8086 H   0  0  0  0  0  0  0  0  0  0  0  0
   -0.6183    1.3974   -0.5693 H   0  0  0  0  0  0  0  0  0  0  0  0
   -1.4082    0.2559   -1.8363 H   0  0  0  0  0  0  0  0  0  0  0  0
   -0.1130   -1.6669   -0.8163 H   0  0  0  0  0  0  0  0  0  0  0  0
    1.9728   -0.9744    0.3015 H   0  0  0  0  0  0  0  0  0  0  0  0
    2.9232   -0.0709   -1.3610 H   0  0  0  0  0  0  0  0  0  0  0  0
  1  2  2  0
  2  3  1  0
  3  4  1  0
  4  5  1  0
  5  6  1  0
  6  7  1  0
  7  8  1  0
  8  9  1  0
  8  2  1  0
  7  4  1  0
  4 10  1  0
  5 11  1  0
  5 12  1  0
  6 13  1  0
  6 14  1  0
  7 15  1  0
  8 16  1  0
  9 17  1  0
M  END
