
     RDKit          3D

 19 20  0  0  0  0  0  0  0  0999 V2000
    0.6349    2.7194    0.2305 O   0  0  0  0  0  0  0  0  0  0  0  0
    0.4705    1.5247    0.1493 C   0  0  0  0  0  0  0  0  0  0  0  0
    1.6438    0.7143   -0.3231 C   0  0  0  0  0  0  0  0  0  0  0  0
    1.1720   -0.1838   -1.2459 O   0  0  0  0  0  0  0  0  0  0  0  0
    0.6085   -1.3229   -0.6991 C   0  0  0  0  0  0  0  0  0  0  0  0
   -0.7026   -1.0711   -0.0073 C   0  0  0  0  0  0  0  0  0  0  0  0
   -1.3643    0.1353   -0.6307 C   0  0  0  0  0  0  0  0  0  0  0  0
   -0.8506    0.9568    0.5144 C   0  0  0  0  0  0  0  0  0  0  0  0
   -0.5742   -0.3364    1.2860 C   0  0  0  0  0  0  0  0  0  0  0  0
    2.0565    0.2322    0.5914 H   0  0  0  0  0  0  0  0  0  0  0  0
    2.4344    1.3506   -0.7561 H   0  0  0  0  0  0  0  0  0  0  0  0
    1.3108   -1.8928   -0.0574 H   0  0  0  0  0  0  0  0  0  0  0  0
    0.3806   -2.0049   -1.5656 H   0  0  0  0  0  0  0  0  0  0  0  0
   -1.3339   -1.9680    0.0597 H   0  0  0  0  0  0  0  0  0  0  0  0
   -0.9479    0.3925   -1.6190 H   0  0  0  0  0  0  0  0  0  0  0  0
   -2.4440   -0.0170   -0.6884 H   0  0  0  0  0  0  0  0  0  0  0  0
   -1.5523    1.6298    1.0018 H   0  0  0  0  0  0  0  0  0  0  0  0
   -1.3849   -0.5042    2.0034 H   0  0  0  0  0  0  0  0  0  0  0  0
    0.4428   -0.3544    1.7561 H   0  0  0  0  0  0  0  0  0  0  0  0
  1  2  2  0
  2  3  1  0
  3  4  1  0
  4  5  1  0
  5  6  1  0
  6  7  1  0
  7  8  1  0
  8  9  1  0
  8  2  1  0
  9  6  1  0
  3 10  1  0
  3 11  1  0
  5 12  1  0
  5 13  1  0
  6 14  1  0
  7 15  1  0
  7 16  1  0
  8 17  1  0
  9 18  1  0
  9 19  1  0
M  END
