
     RDKit          3D

 17 19  0  0  0  0  0  0  0  0999 V2000
    2.9107    1.5333    0.0699 O   0  0  0  0  0  0  0  0  0  0  0  0
    2.0162    0.7346    0.2249 C   0  0  0  0  0  0  0  0  0  0  0  0
    1.6353   -0.5775   -0.3583 C   0  0  0  0  0  0  0  0  0  0  0  0
    0.2649   -0.3408    0.1154 C   0  0  0  0  0  0  0  0  0  0  0  0
    0.8143    0.6479    1.0919 C   0  0  0  0  0  0  0  0  0  0  0  0
   -0.5091   -1.3483    0.5634 O   0  0  0  0  0  0  0  0  0  0  0  0
   -1.6578   -0.9503   -0.0598 C   0  0  0  0  0  0  0  0  0  0  0  0
   -2.0931    0.4547   -0.1450 C   0  0  0  0  0  0  0  0  0  0  0  0
   -0.7804    0.0942   -0.8202 C   0  0  0  0  0  0  0  0  0  0  0  0
    2.1382   -1.3863    0.2476 H   0  0  0  0  0  0  0  0  0  0  0  0
    1.7907   -0.6799   -1.4488 H   0  0  0  0  0  0  0  0  0  0  0  0
    0.2117    1.5537    1.1854 H   0  0  0  0  0  0  0  0  0  0  0  0
    1.0383    0.1251    2.0667 H   0  0  0  0  0  0  0  0  0  0  0  0
   -2.2059   -1.6736   -0.6689 H   0  0  0  0  0  0  0  0  0  0  0  0
   -1.9719    1.1605    0.6921 H   0  0  0  0  0  0  0  0  0  0  0  0
   -2.8624    0.7323   -0.8660 H   0  0  0  0  0  0  0  0  0  0  0  0
   -0.7398   -0.0798   -1.8902 H   0  0  0  0  0  0  0  0  0  0  0  0
  1  2  2  0
  2  3  1  0
  3  4  1  0
  4  5  1  0
  4  6  1  0
  6  7  1  0
  7  8  1  0
  8  9  1  0
  5  2  1  0
  9  7  1  0
  9  4  1  0
  3 10  1  0
  3 11  1  0
  5 12  1  0
  5 13  1  0
  7 14  1  0
  8 15  1  0
  8 16  1  0
  9 17  1  0
M  END
