
     RDKit          3D

 19 21  0  0  0  0  0  0  0  0999 V2000
   -2.5708    0.3627   -1.7950 O   0  0  0  0  0  0  0  0  0  0  0  0
   -1.8491    0.2987   -0.8188 C   0  0  0  0  0  0  0  0  0  0  0  0
   -0.8986    1.2668   -0.2248 C   0  0  0  0  0  0  0  0  0  0  0  0
   -0.3334    0.1259    0.5831 C   0  0  0  0  0  0  0  0  0  0  0  0
    0.9493   -0.5215    0.2096 C   0  0  0  0  0  0  0  0  0  0  0  0
    2.2314    0.1782    0.1322 C   0  0  0  0  0  0  0  0  0  0  0  0
    1.5372   -0.2899   -1.1562 C   0  0  0  0  0  0  0  0  0  0  0  0
   -1.2571   -0.4177    1.5959 C   0  0  0  0  0  0  0  0  0  0  0  0
   -1.5722   -0.7089    0.2021 C   0  0  0  0  0  0  0  0  0  0  0  0
   -1.4796    1.9658    0.4454 H   0  0  0  0  0  0  0  0  0  0  0  0
   -0.1913    1.7483   -0.8949 H   0  0  0  0  0  0  0  0  0  0  0  0
    1.0135   -1.6061    0.5206 H   0  0  0  0  0  0  0  0  0  0  0  0
    3.1736   -0.3819    0.3564 H   0  0  0  0  0  0  0  0  0  0  0  0
    2.3460    1.2674    0.2019 H   0  0  0  0  0  0  0  0  0  0  0  0
    1.1106    0.4805   -1.8216 H   0  0  0  0  0  0  0  0  0  0  0  0
    2.0018   -1.1330   -1.7125 H   0  0  0  0  0  0  0  0  0  0  0  0
   -0.8599   -1.2227    2.2146 H   0  0  0  0  0  0  0  0  0  0  0  0
   -1.9257    0.3147    2.1198 H   0  0  0  0  0  0  0  0  0  0  0  0
   -1.4255   -1.7271   -0.1578 H   0  0  0  0  0  0  0  0  0  0  0  0
  1  2  2  0
  2  3  1  0
  3  4  1  0
  4  5  1  0
  5  6  1  0
  6  7  1  0
  4  8  1  0
  8  9  1  0
  9  2  1  0
  9  4  1  0
  7  5  1  0
  3 10  1  0
  3 11  1  0
  5 12  1  0
  6 13  1  0
  6 14  1  0
  7 15  1  0
  7 16  1  0
  8 17  1  0
  8 18  1  0
  9 19  1  0
M  END
