
     RDKit          3D

 12 13  0  0  0  0  0  0  0  0999 V2000
   -0.9514    2.3565   -0.4231 O   0  0  0  0  0  0  0  0  0  0  0  0
   -0.5601    1.3092    0.0999 C   0  0  0  0  0  0  0  0  0  0  0  0
    0.0136    0.9534    1.3014 O   0  0  0  0  0  0  0  0  0  0  0  0
    0.1830   -0.4216    0.9801 C   0  0  0  0  0  0  0  0  0  0  0  0
    0.8149   -0.7446   -0.3506 C   0  0  0  0  0  0  0  0  0  0  0  0
    1.9424    0.0428   -0.6742 O   0  0  0  0  0  0  0  0  0  0  0  0
   -0.5065   -0.1092   -0.2980 C   0  0  0  0  0  0  0  0  0  0  0  0
   -1.6650   -0.7715   -0.6674 O   0  0  0  0  0  0  0  0  0  0  0  0
   -0.1474   -1.2006    1.6626 H   0  0  0  0  0  0  0  0  0  0  0  0
    0.8395   -1.8140   -0.6121 H   0  0  0  0  0  0  0  0  0  0  0  0
    2.2611    0.5083    0.1412 H   0  0  0  0  0  0  0  0  0  0  0  0
   -2.2240   -0.1087   -1.1597 H   0  0  0  0  0  0  0  0  0  0  0  0
  1  2  2  0
  2  3  1  0
  3  4  1  0
  4  5  1  0
  5  6  1  0
  5  7  1  0
  7  8  1  0
  7  2  1  0
  7  4  1  0
  4  9  1  0
  5 10  1  0
  6 11  1  0
  8 12  1  0
M  END
