
     RDKit          3D

 17 19  0  0  0  0  0  0  0  0999 V2000
   -1.6915    0.2550    2.3912 O   0  0  0  0  0  0  0  0  0  0  0  0
   -1.2255    0.2271    1.2635 C   0  0  0  0  0  0  0  0  0  0  0  0
   -1.6002   -0.5618    0.0622 C   0  0  0  0  0  0  0  0  0  0  0  0
   -0.3642   -0.0102   -0.6191 C   0  0  0  0  0  0  0  0  0  0  0  0
    0.8657   -0.8507   -0.6787 C   0  0  0  0  0  0  0  0  0  0  0  0
    1.7491   -0.3079    0.3994 C   0  0  0  0  0  0  0  0  0  0  0  0
    1.1624    0.7902    0.9526 O   0  0  0  0  0  0  0  0  0  0  0  0
   -0.1312    0.8972    0.5270 C   0  0  0  0  0  0  0  0  0  0  0  0
   -0.3538    1.4492   -0.8276 C   0  0  0  0  0  0  0  0  0  0  0  0
   -1.6488   -1.6435    0.1780 H   0  0  0  0  0  0  0  0  0  0  0  0
   -2.5141   -0.1821   -0.4413 H   0  0  0  0  0  0  0  0  0  0  0  0
    0.5741   -1.9033   -0.4094 H   0  0  0  0  0  0  0  0  0  0  0  0
    1.3789   -0.8588   -1.6443 H   0  0  0  0  0  0  0  0  0  0  0  0
    1.8930   -1.0660    1.2191 H   0  0  0  0  0  0  0  0  0  0  0  0
    2.7547   -0.0378   -0.0357 H   0  0  0  0  0  0  0  0  0  0  0  0
    0.4987    1.8875   -1.3366 H   0  0  0  0  0  0  0  0  0  0  0  0
   -1.3473    1.9158   -1.0005 H   0  0  0  0  0  0  0  0  0  0  0  0
  1  2  2  0
  2  3  1  0
  3  4  1  0
  4  5  1  0
  5  6  1  0
  6  7  1  0
  7  8  1  0
  8  9  1  0
  8  2  1  0
  8  4  1  0
  9  4  1  0
  3 10  1  0
  3 11  1  0
  5 12  1  0
  5 13  1  0
  6 14  1  0
  6 15  1  0
  9 16  1  0
  9 17  1  0
M  END
