
     RDKit          3D

 17 19  0  0  0  0  0  0  0  0999 V2000
    0.6409   -1.2589    2.1526 O   0  0  0  0  0  0  0  0  0  0  0  0
    0.3611   -0.6953    1.1499 C   0  0  0  0  0  0  0  0  0  0  0  0
   -0.5800    0.4621    0.9282 C   0  0  0  0  0  0  0  0  0  0  0  0
   -1.5524   -0.3724    0.0614 C   0  0  0  0  0  0  0  0  0  0  0  0
   -0.4742   -0.5614   -1.0328 C   0  0  0  0  0  0  0  0  0  0  0  0
   -0.4208    0.8208   -1.3603 O   0  0  0  0  0  0  0  0  0  0  0  0
    0.1220    1.2532   -0.1186 C   0  0  0  0  0  0  0  0  0  0  0  0
    1.4736    0.5289   -0.3377 C   0  0  0  0  0  0  0  0  0  0  0  0
    0.7793   -0.8519   -0.2789 C   0  0  0  0  0  0  0  0  0  0  0  0
   -0.9883    0.9145    1.7674 H   0  0  0  0  0  0  0  0  0  0  0  0
   -2.3841    0.2325   -0.2989 H   0  0  0  0  0  0  0  0  0  0  0  0
   -1.8076   -1.3152    0.5384 H   0  0  0  0  0  0  0  0  0  0  0  0
   -0.7601   -1.2006   -1.8216 H   0  0  0  0  0  0  0  0  0  0  0  0
    0.2046    2.3000   -0.0071 H   0  0  0  0  0  0  0  0  0  0  0  0
    1.8712    0.7413   -1.3223 H   0  0  0  0  0  0  0  0  0  0  0  0
    2.1431    0.6695    0.5083 H   0  0  0  0  0  0  0  0  0  0  0  0
    1.3717   -1.6672   -0.5280 H   0  0  0  0  0  0  0  0  0  0  0  0
  1  2  2  0
  2  3  1  0
  3  4  1  0
  4  5  1  0
  5  6  1  0
  6  7  1  0
  7  8  1  0
  8  9  1  0
  9  2  1  0
  7  3  1  0
  9  5  1  0
  3 10  1  0
  4 11  1  0
  4 12  1  0
  5 13  1  0
  7 14  1  0
  8 15  1  0
  8 16  1  0
  9 17  1  0
M  END
