
     RDKit          3D

 17 18  0  0  0  0  0  0  0  0999 V2000
    2.7296   -1.3902   -0.4634 O   0  0  0  0  0  0  0  0  0  0  0  0
    1.6800   -0.7916   -0.2100 C   0  0  0  0  0  0  0  0  0  0  0  0
    1.7497    0.6569    0.0955 C   0  0  0  0  0  0  0  0  0  0  0  0
    0.6441    1.3786   -0.0458 C   0  0  0  0  0  0  0  0  0  0  0  0
   -0.5084    0.6513   -0.4880 C   0  0  0  0  0  0  0  0  0  0  0  0
   -1.6755    0.1578    0.1216 C   0  0  0  0  0  0  0  0  0  0  0  0
   -2.3010    0.9481    1.1052 O   0  0  0  0  0  0  0  0  0  0  0  0
   -0.5388   -0.5849    0.4894 C   0  0  0  0  0  0  0  0  0  0  0  0
    0.3827   -1.5174   -0.2144 C   0  0  0  0  0  0  0  0  0  0  0  0
    2.7073    1.0705    0.4226 H   0  0  0  0  0  0  0  0  0  0  0  0
    0.6580    2.4123    0.1638 H   0  0  0  0  0  0  0  0  0  0  0  0
   -0.3981    0.3992   -1.5919 H   0  0  0  0  0  0  0  0  0  0  0  0
   -2.4623   -0.3268   -0.5087 H   0  0  0  0  0  0  0  0  0  0  0  0
   -3.0314    1.4430    0.6900 H   0  0  0  0  0  0  0  0  0  0  0  0
   -0.1239   -0.3951    1.5272 H   0  0  0  0  0  0  0  0  0  0  0  0
    0.4381   -2.5238    0.1899 H   0  0  0  0  0  0  0  0  0  0  0  0
    0.0498   -1.5880   -1.2829 H   0  0  0  0  0  0  0  0  0  0  0  0
  1  2  2  0
  2  3  1  0
  3  4  2  0
  4  5  1  0
  5  6  1  0
  6  7  1  0
  6  8  1  0
  8  9  1  0
  9  2  1  0
  8  5  1  0
  3 10  1  0
  4 11  1  0
  5 12  1  0
  6 13  1  0
  7 14  1  0
  8 15  1  0
  9 16  1  0
  9 17  1  0
M  END
