
     RDKit          3D

 15 17  0  0  0  0  0  0  0  0999 V2000
    1.4146    0.6364    2.0111 O   0  0  0  0  0  0  0  0  0  0  0  0
    0.8857    0.3575    1.0102 C   0  0  0  0  0  0  0  0  0  0  0  0
    0.0470   -0.8276    0.7082 C   0  0  0  0  0  0  0  0  0  0  0  0
   -1.2356   -0.0075    0.4554 C   0  0  0  0  0  0  0  0  0  0  0  0
   -0.6252    0.7056   -0.7735 C   0  0  0  0  0  0  0  0  0  0  0  0
   -0.4979   -0.4785   -1.5300 O   0  0  0  0  0  0  0  0  0  0  0  0
    0.4851   -1.0753   -0.7105 C   0  0  0  0  0  0  0  0  0  0  0  0
    1.4732   -0.0876   -0.9974 O   0  0  0  0  0  0  0  0  0  0  0  0
    0.7837    0.9706   -0.3355 C   0  0  0  0  0  0  0  0  0  0  0  0
   -0.0170   -1.6052    1.3808 H   0  0  0  0  0  0  0  0  0  0  0  0
   -2.0658   -0.6342    0.1603 H   0  0  0  0  0  0  0  0  0  0  0  0
   -1.4001    0.7051    1.2534 H   0  0  0  0  0  0  0  0  0  0  0  0
   -1.1991    1.4784   -1.1812 H   0  0  0  0  0  0  0  0  0  0  0  0
    0.7630   -2.0644   -0.9737 H   0  0  0  0  0  0  0  0  0  0  0  0
    1.1882    1.9269   -0.4774 H   0  0  0  0  0  0  0  0  0  0  0  0
  1  2  2  0
  2  3  1  0
  3  4  1  0
  4  5  1  0
  5  6  1  0
  6  7  1  0
  7  8  1  0
  8  9  1  0
  9  2  1  0
  7  3  1  0
  9  5  1  0
  3 10  1  0
  4 11  1  0
  4 12  1  0
  5 13  1  0
  7 14  1  0
  9 15  1  0
M  END
