
     RDKit          3D

 19 20  0  0  0  0  0  0  0  0999 V2000
    0.3070    2.0904    1.0520 O   0  0  0  0  0  0  0  0  0  0  0  0
   -0.1708    1.0907    0.5679 C   0  0  0  0  0  0  0  0  0  0  0  0
   -1.6191    0.8638    0.3689 C   0  0  0  0  0  0  0  0  0  0  0  0
   -1.6680    0.0278   -0.8734 C   0  0  0  0  0  0  0  0  0  0  0  0
   -0.3169   -0.6493   -0.9639 C   0  0  0  0  0  0  0  0  0  0  0  0
    0.0413   -1.4625    0.2236 C   0  0  0  0  0  0  0  0  0  0  0  0
    0.5497   -0.0790    0.0867 C   0  0  0  0  0  0  0  0  0  0  0  0
    2.0332    0.0870   -0.1100 C   0  0  0  0  0  0  0  0  0  0  0  0
    2.6515    0.4318    1.0910 O   0  0  0  0  0  0  0  0  0  0  0  0
   -2.1964    1.8136    0.2833 H   0  0  0  0  0  0  0  0  0  0  0  0
   -2.0177    0.3295    1.2544 H   0  0  0  0  0  0  0  0  0  0  0  0
   -2.4526   -0.7619   -0.6976 H   0  0  0  0  0  0  0  0  0  0  0  0
   -1.8846    0.6325   -1.7737 H   0  0  0  0  0  0  0  0  0  0  0  0
    0.0586   -0.9081   -1.9732 H   0  0  0  0  0  0  0  0  0  0  0  0
    0.7557   -2.2721    0.0531 H   0  0  0  0  0  0  0  0  0  0  0  0
   -0.7516   -1.7195    0.9558 H   0  0  0  0  0  0  0  0  0  0  0  0
    2.2752    0.8008   -0.9219 H   0  0  0  0  0  0  0  0  0  0  0  0
    2.4626   -0.8974   -0.3896 H   0  0  0  0  0  0  0  0  0  0  0  0
    1.9429    0.5819    1.7664 H   0  0  0  0  0  0  0  0  0  0  0  0
  1  2  2  0
  2  3  1  0
  3  4  1  0
  4  5  1  0
  5  6  1  0
  6  7  1  0
  7  8  1  0
  8  9  1  0
  7  2  1  0
  7  5  1  0
  3 10  1  0
  3 11  1  0
  4 12  1  0
  4 13  1  0
  5 14  1  0
  6 15  1  0
  6 16  1  0
  8 17  1  0
  8 18  1  0
  9 19  1  0
M  END
