
     RDKit          3D

 15 16  0  0  0  0  0  0  0  0999 V2000
   -0.9699    2.3348    0.3473 O   0  0  0  0  0  0  0  0  0  0  0  0
   -0.6736    1.2089   -0.0164 C   0  0  0  0  0  0  0  0  0  0  0  0
   -1.5126   -0.0039   -0.0177 C   0  0  0  0  0  0  0  0  0  0  0  0
   -0.5198   -1.1107    0.3196 C   0  0  0  0  0  0  0  0  0  0  0  0
    0.7147   -0.6407   -0.4021 C   0  0  0  0  0  0  0  0  0  0  0  0
    1.6267    0.2241    0.3868 C   0  0  0  0  0  0  0  0  0  0  0  0
    0.6492    0.8285   -0.5517 C   0  0  0  0  0  0  0  0  0  0  0  0
   -2.2740   -0.0196    0.7911 H   0  0  0  0  0  0  0  0  0  0  0  0
   -1.9074   -0.2286   -1.0121 H   0  0  0  0  0  0  0  0  0  0  0  0
   -0.8744   -2.0589   -0.1006 H   0  0  0  0  0  0  0  0  0  0  0  0
   -0.3920   -1.1730    1.4172 H   0  0  0  0  0  0  0  0  0  0  0  0
    1.0520   -1.2032   -1.2781 H   0  0  0  0  0  0  0  0  0  0  0  0
    2.6949    0.1506    0.1417 H   0  0  0  0  0  0  0  0  0  0  0  0
    1.3989    0.3859    1.4632 H   0  0  0  0  0  0  0  0  0  0  0  0
    0.9874    1.3059   -1.4883 H   0  0  0  0  0  0  0  0  0  0  0  0
  1  2  2  0
  2  3  1  0
  3  4  1  0
  4  5  1  0
  5  6  1  0
  6  7  1  0
  7  2  1  0
  7  5  1  0
  3  8  1  0
  3  9  1  0
  4 10  1  0
  4 11  1  0
  5 12  1  0
  6 13  1  0
  6 14  1  0
  7 15  1  0
M  END
