
     RDKit          3D

 17 17  0  0  0  0  0  0  0  0999 V2000
   -2.4790    2.0915   -0.5118 O   0  0  0  0  0  0  0  0  0  0  0  0
   -1.6610    1.1650   -0.2981 C   0  0  0  0  0  0  0  0  0  0  0  0
   -0.9118    0.6735   -1.3561 O   0  0  0  0  0  0  0  0  0  0  0  0
   -0.3879   -0.6521   -1.2000 C   0  0  0  0  0  0  0  0  0  0  0  0
    0.3139   -0.8052    0.1113 C   0  0  0  0  0  0  0  0  0  0  0  0
    1.5245    0.0867    0.2396 C   0  0  0  0  0  0  0  0  0  0  0  0
    1.2078    1.4314    0.1312 O   0  0  0  0  0  0  0  0  0  0  0  0
   -0.6641   -0.5021    1.2057 C   0  0  0  0  0  0  0  0  0  0  0  0
   -1.4764    0.6180    0.9368 O   0  0  0  0  0  0  0  0  0  0  0  0
   -1.2596   -1.3387   -1.1951 H   0  0  0  0  0  0  0  0  0  0  0  0
    0.2382   -0.8865   -2.0764 H   0  0  0  0  0  0  0  0  0  0  0  0
    0.6650   -1.8451    0.1918 H   0  0  0  0  0  0  0  0  0  0  0  0
    2.2815   -0.1731   -0.5429 H   0  0  0  0  0  0  0  0  0  0  0  0
    2.0348   -0.0861    1.2088 H   0  0  0  0  0  0  0  0  0  0  0  0
    1.9710    1.8887   -0.3116 H   0  0  0  0  0  0  0  0  0  0  0  0
   -1.3085   -1.3928    1.3452 H   0  0  0  0  0  0  0  0  0  0  0  0
   -0.0883   -0.2731    2.1216 H   0  0  0  0  0  0  0  0  0  0  0  0
  1  2  2  0
  2  3  1  0
  3  4  1  0
  4  5  1  0
  5  6  1  0
  6  7  1  0
  5  8  1  0
  8  9  1  0
  9  2  1  0
  4 10  1  0
  4 11  1  0
  5 12  1  0
  6 13  1  0
  6 14  1  0
  7 15  1  0
  8 16  1  0
  8 17  1  0
M  END
