
     RDKit          3D

 17 19  0  0  0  0  0  0  0  0999 V2000
    2.0415    0.1890    1.4696 O   0  0  0  0  0  0  0  0  0  0  0  0
    1.0420    0.0146    0.8533 C   0  0  0  0  0  0  0  0  0  0  0  0
   -0.1377   -0.8138    1.2065 C   0  0  0  0  0  0  0  0  0  0  0  0
   -1.2698   -0.0514    0.6585 C   0  0  0  0  0  0  0  0  0  0  0  0
   -0.6938    1.1551   -0.0982 C   0  0  0  0  0  0  0  0  0  0  0  0
    0.6519    0.5666   -0.4638 C   0  0  0  0  0  0  0  0  0  0  0  0
    1.5102    1.3397   -1.1013 O   0  0  0  0  0  0  0  0  0  0  0  0
    0.2140   -0.7133   -1.1440 C   0  0  0  0  0  0  0  0  0  0  0  0
   -0.7771   -1.2063   -0.0803 C   0  0  0  0  0  0  0  0  0  0  0  0
   -0.1640   -1.4145    2.1001 H   0  0  0  0  0  0  0  0  0  0  0  0
   -2.2562    0.0086    1.0931 H   0  0  0  0  0  0  0  0  0  0  0  0
   -0.5993    2.0360    0.5449 H   0  0  0  0  0  0  0  0  0  0  0  0
   -1.3470    1.2950   -0.9712 H   0  0  0  0  0  0  0  0  0  0  0  0
    2.2764    1.6855   -0.5919 H   0  0  0  0  0  0  0  0  0  0  0  0
    1.0725   -1.3921   -1.1413 H   0  0  0  0  0  0  0  0  0  0  0  0
   -0.2657   -0.5546   -2.1080 H   0  0  0  0  0  0  0  0  0  0  0  0
   -1.2981   -2.1441   -0.2262 H   0  0  0  0  0  0  0  0  0  0  0  0
  1  2  2  0
  2  3  1  0
  3  4  1  0
  4  5  1  0
  5  6  1  0
  6  7  1  0
  6  8  1  0
  8  9  1  0
  6  2  1  0
  9  3  1  0
  9  4  1  0
  3 10  1  0
  4 11  1  0
  5 12  1  0
  5 13  1  0
  7 14  1  0
  8 15  1  0
  8 16  1  0
  9 17  1  0
M  END
