
     RDKit          3D

 15 15  0  0  0  0  0  0  0  0999 V2000
    1.8506    1.8949    0.4582 O   0  0  0  0  0  0  0  0  0  0  0  0
    1.0550    1.0100    0.0138 C   0  0  0  0  0  0  0  0  0  0  0  0
    1.5442   -0.3459   -0.1635 C   0  0  0  0  0  0  0  0  0  0  0  0
    0.7282   -1.3694    0.0972 C   0  0  0  0  0  0  0  0  0  0  0  0
   -0.6252   -1.0386    0.5514 C   0  0  0  0  0  0  0  0  0  0  0  0
   -1.2449    0.1126   -0.1865 C   0  0  0  0  0  0  0  0  0  0  0  0
   -0.3581    1.3008   -0.3339 C   0  0  0  0  0  0  0  0  0  0  0  0
    2.5597   -0.4990   -0.5015 H   0  0  0  0  0  0  0  0  0  0  0  0
    1.1177   -2.3704   -0.0432 H   0  0  0  0  0  0  0  0  0  0  0  0
   -1.2513   -1.9276    0.5187 H   0  0  0  0  0  0  0  0  0  0  0  0
   -0.5398   -0.7326    1.6303 H   0  0  0  0  0  0  0  0  0  0  0  0
   -1.5011   -0.2624   -1.2097 H   0  0  0  0  0  0  0  0  0  0  0  0
   -2.1929    0.4015    0.2821 H   0  0  0  0  0  0  0  0  0  0  0  0
   -0.7542    2.1366    0.2806 H   0  0  0  0  0  0  0  0  0  0  0  0
   -0.3881    1.6894   -1.3941 H   0  0  0  0  0  0  0  0  0  0  0  0
  1  2  2  0
  2  3  1  0
  3  4  2  0
  4  5  1  0
  5  6  1  0
  6  7  1  0
  7  2  1  0
  3  8  1  0
  4  9  1  0
  5 10  1  0
  5 11  1  0
  6 12  1  0
  6 13  1  0
  7 14  1  0
  7 15  1  0
M  END
