
     RDKit          3D

 19 20  0  0  0  0  0  0  0  0999 V2000
    1.8323   -1.5805    0.6821 O   0  0  0  0  0  0  0  0  0  0  0  0
    1.0982   -0.8640    0.0201 C   0  0  0  0  0  0  0  0  0  0  0  0
    1.6509    0.4990   -0.1438 C   0  0  0  0  0  0  0  0  0  0  0  0
    0.5456    1.5609   -0.2328 C   0  0  0  0  0  0  0  0  0  0  0  0
   -0.5028    1.1630    0.7248 C   0  0  0  0  0  0  0  0  0  0  0  0
   -1.8170    1.4453    0.6849 O   0  0  0  0  0  0  0  0  0  0  0  0
   -1.5477    0.3874   -0.0993 C   0  0  0  0  0  0  0  0  0  0  0  0
   -1.3842   -1.0272    0.3048 C   0  0  0  0  0  0  0  0  0  0  0  0
   -0.1410   -1.5381   -0.4420 C   0  0  0  0  0  0  0  0  0  0  0  0
    2.3580    0.5830   -0.9874 H   0  0  0  0  0  0  0  0  0  0  0  0
    2.2089    0.7512    0.7811 H   0  0  0  0  0  0  0  0  0  0  0  0
    1.0231    2.5533    0.0026 H   0  0  0  0  0  0  0  0  0  0  0  0
    0.2008    1.6493   -1.2903 H   0  0  0  0  0  0  0  0  0  0  0  0
   -0.1340    0.7032    1.6636 H   0  0  0  0  0  0  0  0  0  0  0  0
   -1.5699    0.5530   -1.1935 H   0  0  0  0  0  0  0  0  0  0  0  0
   -1.2037   -1.1813    1.3836 H   0  0  0  0  0  0  0  0  0  0  0  0
   -2.2185   -1.6542   -0.0538 H   0  0  0  0  0  0  0  0  0  0  0  0
   -0.0922   -2.6121   -0.2704 H   0  0  0  0  0  0  0  0  0  0  0  0
   -0.3067   -1.3912   -1.5344 H   0  0  0  0  0  0  0  0  0  0  0  0
  1  2  2  0
  2  3  1  0
  3  4  1  0
  4  5  1  0
  5  6  1  0
  6  7  1  0
  7  8  1  0
  8  9  1  0
  9  2  1  0
  7  5  1  0
  3 10  1  0
  3 11  1  0
  4 12  1  0
  4 13  1  0
  5 14  1  0
  7 15  1  0
  8 16  1  0
  8 17  1  0
  9 18  1  0
  9 19  1  0
M  END
