
     RDKit          3D

 19 19  0  0  0  0  0  0  0  0999 V2000
    2.8273    0.6072    0.7455 O   0  0  0  0  0  0  0  0  0  0  0  0
    1.7721    0.2477    0.2734 C   0  0  0  0  0  0  0  0  0  0  0  0
    1.4890   -1.2132    0.2872 C   0  0  0  0  0  0  0  0  0  0  0  0
    0.2405   -1.3979    0.9232 O   0  0  0  0  0  0  0  0  0  0  0  0
   -0.7611   -1.3497   -0.0409 C   0  0  0  0  0  0  0  0  0  0  0  0
   -1.7249   -0.2108    0.1736 C   0  0  0  0  0  0  0  0  0  0  0  0
   -1.2412    1.0941   -0.3746 C   0  0  0  0  0  0  0  0  0  0  0  0
   -0.0450    1.0116   -1.0576 O   0  0  0  0  0  0  0  0  0  0  0  0
    0.9987    1.4168   -0.2200 C   0  0  0  0  0  0  0  0  0  0  0  0
    1.4287   -1.5318   -0.7906 H   0  0  0  0  0  0  0  0  0  0  0  0
    2.2723   -1.7850    0.8097 H   0  0  0  0  0  0  0  0  0  0  0  0
   -1.3639   -2.2937    0.1065 H   0  0  0  0  0  0  0  0  0  0  0  0
   -0.3747   -1.3399   -1.0726 H   0  0  0  0  0  0  0  0  0  0  0  0
   -2.6746   -0.4730   -0.3630 H   0  0  0  0  0  0  0  0  0  0  0  0
   -1.9887   -0.1445    1.2548 H   0  0  0  0  0  0  0  0  0  0  0  0
   -1.1012    1.7924    0.4965 H   0  0  0  0  0  0  0  0  0  0  0  0
   -1.9959    1.5657   -1.0478 H   0  0  0  0  0  0  0  0  0  0  0  0
    0.5641    1.9049    0.7009 H   0  0  0  0  0  0  0  0  0  0  0  0
    1.6786    2.0992   -0.7549 H   0  0  0  0  0  0  0  0  0  0  0  0
  1  2  2  0
  2  3  1  0
  3  4  1  0
  4  5  1  0
  5  6  1  0
  6  7  1  0
  7  8  1  0
  8  9  1  0
  9  2  1  0
  3 10  1  0
  3 11  1  0
  5 12  1  0
  5 13  1  0
  6 14  1  0
  6 15  1  0
  7 16  1  0
  7 17  1  0
  9 18  1  0
  9 19  1  0
M  END
