
     RDKit          3D

 15 17  0  0  0  0  0  0  0  0999 V2000
   -2.1017    1.6721   -0.7792 O   0  0  0  0  0  0  0  0  0  0  0  0
   -1.5855    0.5458   -0.5014 C   0  0  0  0  0  0  0  0  0  0  0  0
   -2.0574   -0.7830   -0.4230 O   0  0  0  0  0  0  0  0  0  0  0  0
   -0.8269   -1.2431    0.1638 C   0  0  0  0  0  0  0  0  0  0  0  0
   -0.3060    0.0602   -0.1376 C   0  0  0  0  0  0  0  0  0  0  0  0
    0.5667    0.8042    0.8238 C   0  0  0  0  0  0  0  0  0  0  0  0
    1.5839   -0.1813    0.2372 C   0  0  0  0  0  0  0  0  0  0  0  0
    2.0804   -0.2029   -0.9768 O   0  0  0  0  0  0  0  0  0  0  0  0
    0.8457    0.2585   -1.0671 C   0  0  0  0  0  0  0  0  0  0  0  0
   -1.0470   -1.4099    1.2603 H   0  0  0  0  0  0  0  0  0  0  0  0
   -0.4224   -2.1559   -0.2751 H   0  0  0  0  0  0  0  0  0  0  0  0
    0.7038    1.8470    0.4917 H   0  0  0  0  0  0  0  0  0  0  0  0
    0.4232    0.6300    1.8892 H   0  0  0  0  0  0  0  0  0  0  0  0
    1.2634   -1.2174    0.5833 H   0  0  0  0  0  0  0  0  0  0  0  0
    0.8798    1.3758   -1.2892 H   0  0  0  0  0  0  0  0  0  0  0  0
  1  2  2  0
  2  3  1  0
  3  4  1  0
  4  5  1  0
  5  6  1  0
  6  7  1  0
  7  8  1  0
  8  9  1  0
  5  2  1  0
  9  7  1  0
  9  5  1  0
  4 10  1  0
  4 11  1  0
  6 12  1  0
  6 13  1  0
  7 14  1  0
  9 15  1  0
M  END
