
     RDKit          3D

 19 19  0  0  0  0  0  0  0  0999 V2000
   -2.2329   -1.5651   -0.9249 O   0  0  0  0  0  0  0  0  0  0  0  0
   -1.4572   -0.8449   -0.3336 C   0  0  0  0  0  0  0  0  0  0  0  0
   -1.6757    0.6201   -0.3294 C   0  0  0  0  0  0  0  0  0  0  0  0
   -0.3378    1.3304   -0.5747 C   0  0  0  0  0  0  0  0  0  0  0  0
    0.6380    0.7569    0.4381 C   0  0  0  0  0  0  0  0  0  0  0  0
    1.7890    1.5239    0.5347 O   0  0  0  0  0  0  0  0  0  0  0  0
    0.9278   -0.6541   -0.0289 C   0  0  0  0  0  0  0  0  0  0  0  0
    2.0834   -1.1778    0.4675 O   0  0  0  0  0  0  0  0  0  0  0  0
   -0.3117   -1.4706    0.3666 C   0  0  0  0  0  0  0  0  0  0  0  0
   -2.3978    0.9112   -1.1208 H   0  0  0  0  0  0  0  0  0  0  0  0
   -2.0293    0.9940    0.6562 H   0  0  0  0  0  0  0  0  0  0  0  0
   -0.0178    1.0076   -1.5901 H   0  0  0  0  0  0  0  0  0  0  0  0
   -0.4600    2.4115   -0.4792 H   0  0  0  0  0  0  0  0  0  0  0  0
    0.1480    0.7532    1.4419 H   0  0  0  0  0  0  0  0  0  0  0  0
    2.2866    1.2154    1.3235 H   0  0  0  0  0  0  0  0  0  0  0  0
    0.9249   -0.6811   -1.1579 H   0  0  0  0  0  0  0  0  0  0  0  0
    2.7545   -1.2227   -0.2814 H   0  0  0  0  0  0  0  0  0  0  0  0
   -0.4271   -1.3841    1.4870 H   0  0  0  0  0  0  0  0  0  0  0  0
   -0.2047   -2.5240    0.1054 H   0  0  0  0  0  0  0  0  0  0  0  0
  1  2  2  0
  2  3  1  0
  3  4  1  0
  4  5  1  0
  5  6  1  0
  5  7  1  0
  7  8  1  0
  7  9  1  0
  9  2  1  0
  3 10  1  0
  3 11  1  0
  4 12  1  0
  4 13  1  0
  5 14  1  0
  6 15  1  0
  7 16  1  0
  8 17  1  0
  9 18  1  0
  9 19  1  0
M  END
