
     RDKit          3D

 15 16  0  0  0  0  0  0  0  0999 V2000
    0.7980   -1.4208    1.8422 O   0  0  0  0  0  0  0  0  0  0  0  0
    0.5577   -0.8718    0.8025 C   0  0  0  0  0  0  0  0  0  0  0  0
    1.3640    0.1339    0.0833 C   0  0  0  0  0  0  0  0  0  0  0  0
    2.3069    0.7507    0.8930 O   0  0  0  0  0  0  0  0  0  0  0  0
    0.3270    1.0590   -0.4092 C   0  0  0  0  0  0  0  0  0  0  0  0
    0.3637    2.2549   -0.4622 O   0  0  0  0  0  0  0  0  0  0  0  0
   -0.8071    0.2234   -0.8420 C   0  0  0  0  0  0  0  0  0  0  0  0
   -1.8369   -0.2028    0.1291 C   0  0  0  0  0  0  0  0  0  0  0  0
   -0.6504   -1.0950   -0.0164 C   0  0  0  0  0  0  0  0  0  0  0  0
    1.8717   -0.3708   -0.7745 H   0  0  0  0  0  0  0  0  0  0  0  0
    2.1802    1.7268    0.9509 H   0  0  0  0  0  0  0  0  0  0  0  0
   -0.9784    0.0750   -1.9392 H   0  0  0  0  0  0  0  0  0  0  0  0
   -1.9886    0.3656    1.0676 H   0  0  0  0  0  0  0  0  0  0  0  0
   -2.7730   -0.6095   -0.3207 H   0  0  0  0  0  0  0  0  0  0  0  0
   -0.7349   -2.0186   -0.6195 H   0  0  0  0  0  0  0  0  0  0  0  0
  1  2  2  0
  2  3  1  0
  3  4  1  0
  3  5  1  0
  5  6  2  0
  5  7  1  0
  7  8  1  0
  8  9  1  0
  9  2  1  0
  9  7  1  0
  3 10  1  0
  4 11  1  0
  7 12  1  0
  8 13  1  0
  8 14  1  0
  9 15  1  0
M  END
