
     RDKit          3D

 15 17  0  0  0  0  0  0  0  0999 V2000
    3.3068    0.5599    0.4177 O   0  0  0  0  0  0  0  0  0  0  0  0
    2.1053    0.4396    0.0712 C   0  0  0  0  0  0  0  0  0  0  0  0
    1.2549   -0.6606   -0.4595 C   0  0  0  0  0  0  0  0  0  0  0  0
    0.1767    0.2802   -0.0208 C   0  0  0  0  0  0  0  0  0  0  0  0
   -1.0238    0.4087   -0.8707 C   0  0  0  0  0  0  0  0  0  0  0  0
   -1.8810    0.0702    0.3465 C   0  0  0  0  0  0  0  0  0  0  0  0
   -1.6424    0.7342    1.5303 O   0  0  0  0  0  0  0  0  0  0  0  0
   -0.6040   -0.0768    1.1865 C   0  0  0  0  0  0  0  0  0  0  0  0
    1.0574    1.3592    0.0572 O   0  0  0  0  0  0  0  0  0  0  0  0
    1.3476   -0.8258   -1.5510 H   0  0  0  0  0  0  0  0  0  0  0  0
    1.2649   -1.5784    0.1565 H   0  0  0  0  0  0  0  0  0  0  0  0
   -1.2190    1.4574   -1.1776 H   0  0  0  0  0  0  0  0  0  0  0  0
   -1.1763   -0.3407   -1.6678 H   0  0  0  0  0  0  0  0  0  0  0  0
   -2.5565   -0.7900    0.3075 H   0  0  0  0  0  0  0  0  0  0  0  0
   -0.4107   -1.0370    1.6739 H   0  0  0  0  0  0  0  0  0  0  0  0
  1  2  2  0
  2  3  1  0
  3  4  1  0
  4  5  1  0
  5  6  1  0
  6  7  1  0
  7  8  1  0
  4  9  1  0
  9  2  1  0
  8  4  1  0
  8  6  1  0
  3 10  1  0
  3 11  1  0
  5 12  1  0
  5 13  1  0
  6 14  1  0
  8 15  1  0
M  END
