
     RDKit          3D

 17 18  0  0  0  0  0  0  0  0999 V2000
    0.5887    2.4442    0.8889 O   0  0  0  0  0  0  0  0  0  0  0  0
    0.6111    1.3803    0.3184 C   0  0  0  0  0  0  0  0  0  0  0  0
    1.6762    0.3270    0.2978 C   0  0  0  0  0  0  0  0  0  0  0  0
    0.9101   -0.7913   -0.4142 C   0  0  0  0  0  0  0  0  0  0  0  0
   -0.2117   -1.2638    0.4567 C   0  0  0  0  0  0  0  0  0  0  0  0
   -1.2440   -0.1620    0.2899 C   0  0  0  0  0  0  0  0  0  0  0  0
   -2.3265   -0.5694   -0.4680 O   0  0  0  0  0  0  0  0  0  0  0  0
   -0.4614    0.8416   -0.5358 C   0  0  0  0  0  0  0  0  0  0  0  0
    0.2440   -0.0375   -1.3945 O   0  0  0  0  0  0  0  0  0  0  0  0
    2.0189    0.0393    1.2869 H   0  0  0  0  0  0  0  0  0  0  0  0
    2.4640    0.7016   -0.3813 H   0  0  0  0  0  0  0  0  0  0  0  0
    1.5541   -1.5617   -0.8146 H   0  0  0  0  0  0  0  0  0  0  0  0
   -0.5840   -2.2538    0.1952 H   0  0  0  0  0  0  0  0  0  0  0  0
    0.1370   -1.2532    1.5174 H   0  0  0  0  0  0  0  0  0  0  0  0
   -1.5090    0.3246    1.2262 H   0  0  0  0  0  0  0  0  0  0  0  0
   -2.8052    0.2718   -0.7412 H   0  0  0  0  0  0  0  0  0  0  0  0
   -1.0624    1.5623   -1.0588 H   0  0  0  0  0  0  0  0  0  0  0  0
  1  2  2  0
  2  3  1  0
  3  4  1  0
  4  5  1  0
  5  6  1  0
  6  7  1  0
  6  8  1  0
  8  9  1  0
  8  2  1  0
  9  4  1  0
  3 10  1  0
  3 11  1  0
  4 12  1  0
  5 13  1  0
  5 14  1  0
  6 15  1  0
  7 16  1  0
  8 17  1  0
M  END
