
     RDKit          3D

 15 15  0  0  0  0  0  0  0  0999 V2000
    2.7339   -1.2152    0.3474 O   0  0  0  0  0  0  0  0  0  0  0  0
    1.6876   -0.5997    0.0430 C   0  0  0  0  0  0  0  0  0  0  0  0
    1.6400    0.7605   -0.2368 O   0  0  0  0  0  0  0  0  0  0  0  0
    0.5174    1.5366    0.1226 C   0  0  0  0  0  0  0  0  0  0  0  0
   -0.7717    0.8013    0.0678 C   0  0  0  0  0  0  0  0  0  0  0  0
   -0.7152   -0.5371   -0.5766 C   0  0  0  0  0  0  0  0  0  0  0  0
   -1.9090   -1.2126   -0.2596 O   0  0  0  0  0  0  0  0  0  0  0  0
    0.4320   -1.3366   -0.0278 C   0  0  0  0  0  0  0  0  0  0  0  0
    0.3021   -2.5307    0.3323 O   0  0  0  0  0  0  0  0  0  0  0  0
    0.5119    2.4186   -0.5571 H   0  0  0  0  0  0  0  0  0  0  0  0
    0.7199    1.9502    1.1452 H   0  0  0  0  0  0  0  0  0  0  0  0
   -1.1699    0.6603    1.1146 H   0  0  0  0  0  0  0  0  0  0  0  0
   -1.5545    1.4024   -0.4816 H   0  0  0  0  0  0  0  0  0  0  0  0
   -0.6707   -0.4736   -1.6696 H   0  0  0  0  0  0  0  0  0  0  0  0
   -1.7536   -1.6244    0.6362 H   0  0  0  0  0  0  0  0  0  0  0  0
  1  2  2  0
  2  3  1  0
  3  4  1  0
  4  5  1  0
  5  6  1  0
  6  7  1  0
  6  8  1  0
  8  9  2  0
  8  2  1  0
  4 10  1  0
  4 11  1  0
  5 12  1  0
  5 13  1  0
  6 14  1  0
  7 15  1  0
M  END
