
     RDKit          3D

 17 18  0  0  0  0  0  0  0  0999 V2000
   -2.8610    0.9960   -0.4868 O   0  0  0  0  0  0  0  0  0  0  0  0
   -1.8748    0.3575   -0.1666 C   0  0  0  0  0  0  0  0  0  0  0  0
   -1.3310   -0.9548   -0.5914 C   0  0  0  0  0  0  0  0  0  0  0  0
   -0.3290   -0.8505    0.5372 C   0  0  0  0  0  0  0  0  0  0  0  0
    1.0375   -1.0593    0.0241 C   0  0  0  0  0  0  0  0  0  0  0  0
    1.7630   -0.0051   -0.2566 C   0  0  0  0  0  0  0  0  0  0  0  0
    1.2839    1.3651   -0.0861 C   0  0  0  0  0  0  0  0  0  0  0  0
    0.0641    1.5444    0.4285 O   0  0  0  0  0  0  0  0  0  0  0  0
   -0.7177    0.5353    0.7896 C   0  0  0  0  0  0  0  0  0  0  0  0
   -0.8859   -0.8594   -1.6083 H   0  0  0  0  0  0  0  0  0  0  0  0
   -2.0130   -1.8181   -0.4957 H   0  0  0  0  0  0  0  0  0  0  0  0
   -0.5687   -1.5322    1.3816 H   0  0  0  0  0  0  0  0  0  0  0  0
    1.4213   -2.0417   -0.1133 H   0  0  0  0  0  0  0  0  0  0  0  0
    2.7670   -0.1628   -0.6336 H   0  0  0  0  0  0  0  0  0  0  0  0
    2.0420    1.9080    0.5516 H   0  0  0  0  0  0  0  0  0  0  0  0
    1.3738    1.8852   -1.0859 H   0  0  0  0  0  0  0  0  0  0  0  0
   -1.1715    0.6926    1.8118 H   0  0  0  0  0  0  0  0  0  0  0  0
  1  2  2  0
  2  3  1  0
  3  4  1  0
  4  5  1  0
  5  6  2  0
  6  7  1  0
  7  8  1  0
  8  9  1  0
  9  2  1  0
  9  4  1  0
  3 10  1  0
  3 11  1  0
  4 12  1  0
  5 13  1  0
  6 14  1  0
  7 15  1  0
  7 16  1  0
  9 17  1  0
M  END
