
     RDKit          3D

 17 19  0  0  0  0  0  0  0  0999 V2000
   -0.8746    2.1984    1.1845 O   0  0  0  0  0  0  0  0  0  0  0  0
   -0.6264    1.1273    0.7137 C   0  0  0  0  0  0  0  0  0  0  0  0
   -1.4732   -0.0797    0.7197 C   0  0  0  0  0  0  0  0  0  0  0  0
   -0.9736   -0.9016   -0.4804 C   0  0  0  0  0  0  0  0  0  0  0  0
    0.4170   -1.3300   -0.3494 C   0  0  0  0  0  0  0  0  0  0  0  0
    1.2931   -0.4923    0.5499 C   0  0  0  0  0  0  0  0  0  0  0  0
    0.6138    0.7550    0.0007 C   0  0  0  0  0  0  0  0  0  0  0  0
    1.4680    1.7620   -0.3419 O   0  0  0  0  0  0  0  0  0  0  0  0
    0.0803   -0.1082   -1.1015 C   0  0  0  0  0  0  0  0  0  0  0  0
   -1.2660   -0.7082    1.6103 H   0  0  0  0  0  0  0  0  0  0  0  0
   -2.5437    0.1049    0.6703 H   0  0  0  0  0  0  0  0  0  0  0  0
   -1.7168   -1.3848   -1.1239 H   0  0  0  0  0  0  0  0  0  0  0  0
    0.8381   -2.2158   -0.8561 H   0  0  0  0  0  0  0  0  0  0  0  0
    2.3530   -0.5646    0.3166 H   0  0  0  0  0  0  0  0  0  0  0  0
    1.0192   -0.6085    1.6375 H   0  0  0  0  0  0  0  0  0  0  0  0
    1.1369    2.3835   -1.0053 H   0  0  0  0  0  0  0  0  0  0  0  0
    0.2548    0.0625   -2.1447 H   0  0  0  0  0  0  0  0  0  0  0  0
  1  2  2  0
  2  3  1  0
  3  4  1  0
  4  5  1  0
  5  6  1  0
  6  7  1  0
  7  8  1  0
  7  9  1  0
  7  2  1  0
  9  4  1  0
  9  5  1  0
  3 10  1  0
  3 11  1  0
  4 12  1  0
  5 13  1  0
  6 14  1  0
  6 15  1  0
  8 16  1  0
  9 17  1  0
M  END
