
     RDKit          3D

 15 17  0  0  0  0  0  0  0  0999 V2000
    2.4572    1.3484   -0.1288 O   0  0  0  0  0  0  0  0  0  0  0  0
    1.4313    0.6482   -0.0969 C   0  0  0  0  0  0  0  0  0  0  0  0
    1.3674   -0.8040    0.0508 C   0  0  0  0  0  0  0  0  0  0  0  0
    2.2412   -1.5636    0.5471 O   0  0  0  0  0  0  0  0  0  0  0  0
    0.0410   -1.2106   -0.5124 C   0  0  0  0  0  0  0  0  0  0  0  0
   -1.1057   -0.6234    0.2033 C   0  0  0  0  0  0  0  0  0  0  0  0
   -0.7538    0.5974    1.0147 C   0  0  0  0  0  0  0  0  0  0  0  0
    0.0213    1.1063   -0.1999 C   0  0  0  0  0  0  0  0  0  0  0  0
   -0.5986    0.0046   -1.0012 C   0  0  0  0  0  0  0  0  0  0  0  0
   -0.0841   -2.2104   -0.9229 H   0  0  0  0  0  0  0  0  0  0  0  0
   -2.0935   -1.0791    0.2646 H   0  0  0  0  0  0  0  0  0  0  0  0
   -0.0905    0.2810    1.8656 H   0  0  0  0  0  0  0  0  0  0  0  0
   -1.5833    1.2273    1.3390 H   0  0  0  0  0  0  0  0  0  0  0  0
   -0.1532    2.1268   -0.4868 H   0  0  0  0  0  0  0  0  0  0  0  0
   -1.0968    0.1511   -1.9363 H   0  0  0  0  0  0  0  0  0  0  0  0
  1  2  2  0
  2  3  1  0
  3  4  2  0
  3  5  1  0
  5  6  1  0
  6  7  1  0
  7  8  1  0
  8  9  1  0
  8  2  1  0
  9  5  1  0
  9  6  1  0
  5 10  1  0
  6 11  1  0
  7 12  1  0
  7 13  1  0
  8 14  1  0
  9 15  1  0
M  END
