
     RDKit          2D

 17 19  0  0  0  0  0  0  0  0999 V2000
   -1.0607    3.6213    0.0000 O   0  0  0  0  0  0  0  0  0  0  0  0
   -1.0607    2.1213    0.0000 C   0  0  0  0  0  0  0  0  0  0  0  0
   -2.1213    1.0607    0.0000 C   0  0  0  0  0  0  0  0  0  0  0  0
   -2.8023   -0.2758    0.0000 C   0  0  0  0  0  0  0  0  0  0  0  0
   -1.7416   -1.3365    0.0000 C   0  0  0  0  0  0  0  0  0  0  0  0
   -0.0000   -1.0607    0.0000 C   0  0  0  0  0  0  0  0  0  0  0  0
    1.0607    0.0000    0.0000 O   0  0  0  0  0  0  0  0  0  0  0  0
    0.0000    1.0607    0.0000 C   0  0  0  0  0  0  0  0  0  0  0  0
   -1.0607    0.0000    0.0000 C   0  0  0  0  0  0  0  0  0  0  0  0
   -3.6101    1.2435    0.0000 H   0  0  0  0  0  0  0  0  0  0  0  0
   -4.1505    0.3817    0.0000 H   0  0  0  0  0  0  0  0  0  0  0  0
   -3.7463   -1.4416    0.0000 H   0  0  0  0  0  0  0  0  0  0  0  0
   -2.9074   -2.2805    0.0000 H   0  0  0  0  0  0  0  0  0  0  0  0
   -0.9247   -2.5945    0.0000 H   0  0  0  0  0  0  0  0  0  0  0  0
   -0.0000   -2.5607    0.0000 H   0  0  0  0  0  0  0  0  0  0  0  0
    1.0607    2.1213    0.0000 H   0  0  0  0  0  0  0  0  0  0  0  0
   -1.9980   -0.5631    0.0000 H   0  0  0  0  0  0  0  0  0  0  0  0
  1  2  2  0
  2  3  1  0
  3  4  1  0
  4  5  1  0
  5  6  1  0
  6  7  1  0
  7  8  1  0
  8  9  1  0
  8  2  1  0
  9  3  1  0
  9  6  1  0
  3 10  1  0
  4 11  1  0
  4 12  1  0
  5 13  1  0
  5 14  1  0
  6 15  1  0
  8 16  1  0
  9 17  1  0
M  END
