
     RDKit          3D

 19 20  0  0  0  0  0  0  0  0999 V2000
    0.2969    0.3072    2.1374 O   0  0  0  0  0  0  0  0  0  0  0  0
    0.1525    0.2748    0.9408 C   0  0  0  0  0  0  0  0  0  0  0  0
    1.0487    0.4262   -0.2641 C   0  0  0  0  0  0  0  0  0  0  0  0
    2.1967   -0.5532   -0.1305 C   0  0  0  0  0  0  0  0  0  0  0  0
    2.9165   -0.2739    1.0425 O   0  0  0  0  0  0  0  0  0  0  0  0
   -0.0715   -0.0129   -1.1639 C   0  0  0  0  0  0  0  0  0  0  0  0
   -0.9630    0.0726    0.0309 C   0  0  0  0  0  0  0  0  0  0  0  0
   -2.1294   -0.7410    0.2623 C   0  0  0  0  0  0  0  0  0  0  0  0
   -2.2208    0.7906    0.0756 C   0  0  0  0  0  0  0  0  0  0  0  0
    1.3905    1.4699   -0.3751 H   0  0  0  0  0  0  0  0  0  0  0  0
    1.8225   -1.5915   -0.0186 H   0  0  0  0  0  0  0  0  0  0  0  0
    2.8643   -0.5354   -1.0191 H   0  0  0  0  0  0  0  0  0  0  0  0
    3.1221    0.6920    1.1323 H   0  0  0  0  0  0  0  0  0  0  0  0
   -0.3256    0.6727   -1.9950 H   0  0  0  0  0  0  0  0  0  0  0  0
   -0.0099   -1.0574   -1.5357 H   0  0  0  0  0  0  0  0  0  0  0  0
   -2.5430   -1.3589   -0.5826 H   0  0  0  0  0  0  0  0  0  0  0  0
   -2.3629   -1.1431    1.2558 H   0  0  0  0  0  0  0  0  0  0  0  0
   -2.7593    1.1715   -0.7966 H   0  0  0  0  0  0  0  0  0  0  0  0
   -2.4251    1.3896    1.0036 H   0  0  0  0  0  0  0  0  0  0  0  0
  1  2  2  0
  2  3  1  0
  3  4  1  0
  4  5  1  0
  3  6  1  0
  6  7  1  0
  7  8  1  0
  8  9  1  0
  7  2  1  0
  9  7  1  0
  3 10  1  0
  4 11  1  0
  4 12  1  0
  5 13  1  0
  6 14  1  0
  6 15  1  0
  8 16  1  0
  8 17  1  0
  9 18  1  0
  9 19  1  0
M  END
