
     RDKit          3D

 19 20  0  0  0  0  0  0  0  0999 V2000
    3.7486   -0.3214   -0.7299 O   0  0  0  0  0  0  0  0  0  0  0  0
    2.5592   -0.4151   -0.3870 C   0  0  0  0  0  0  0  0  0  0  0  0
    1.4108    0.2240   -1.0616 C   0  0  0  0  0  0  0  0  0  0  0  0
    0.4729    0.3716    0.1404 C   0  0  0  0  0  0  0  0  0  0  0  0
   -0.9272    0.6747   -0.2617 C   0  0  0  0  0  0  0  0  0  0  0  0
   -1.9193    0.8383    0.8106 C   0  0  0  0  0  0  0  0  0  0  0  0
   -2.0311   -0.2793   -0.1871 C   0  0  0  0  0  0  0  0  0  0  0  0
    0.6465   -1.0034    0.7491 C   0  0  0  0  0  0  0  0  0  0  0  0
    2.0803   -1.1343    0.6904 O   0  0  0  0  0  0  0  0  0  0  0  0
    1.6345    1.1799   -1.5303 H   0  0  0  0  0  0  0  0  0  0  0  0
    0.9450   -0.5197   -1.7466 H   0  0  0  0  0  0  0  0  0  0  0  0
    0.9358    1.1094    0.8067 H   0  0  0  0  0  0  0  0  0  0  0  0
   -1.0016    1.4335   -1.0950 H   0  0  0  0  0  0  0  0  0  0  0  0
   -1.6741    0.5495    1.8742 H   0  0  0  0  0  0  0  0  0  0  0  0
   -2.6784    1.6450    0.7628 H   0  0  0  0  0  0  0  0  0  0  0  0
   -2.8799   -0.1862   -0.9107 H   0  0  0  0  0  0  0  0  0  0  0  0
   -1.8683   -1.2997    0.2068 H   0  0  0  0  0  0  0  0  0  0  0  0
    0.2860   -1.0661    1.7819 H   0  0  0  0  0  0  0  0  0  0  0  0
    0.2603   -1.8007    0.0870 H   0  0  0  0  0  0  0  0  0  0  0  0
  1  2  2  0
  2  3  1  0
  3  4  1  0
  4  5  1  0
  5  6  1  0
  6  7  1  0
  4  8  1  0
  8  9  1  0
  9  2  1  0
  7  5  1  0
  3 10  1  0
  3 11  1  0
  4 12  1  0
  5 13  1  0
  6 14  1  0
  6 15  1  0
  7 16  1  0
  7 17  1  0
  8 18  1  0
  8 19  1  0
M  END
