
     RDKit          3D

 17 17  0  0  0  0  0  0  0  0999 V2000
   -2.8114    0.9944    0.1389 O   0  0  0  0  0  0  0  0  0  0  0  0
   -1.6393    0.5335    0.1681 C   0  0  0  0  0  0  0  0  0  0  0  0
   -0.5260    1.4876    0.1207 C   0  0  0  0  0  0  0  0  0  0  0  0
    0.8197    0.9002    0.0289 C   0  0  0  0  0  0  0  0  0  0  0  0
    0.9044   -0.4478   -0.6121 C   0  0  0  0  0  0  0  0  0  0  0  0
    2.1853   -0.9488   -0.3024 O   0  0  0  0  0  0  0  0  0  0  0  0
   -0.0709   -1.4454   -0.0839 C   0  0  0  0  0  0  0  0  0  0  0  0
   -1.3751   -0.8757    0.2453 C   0  0  0  0  0  0  0  0  0  0  0  0
   -2.2962   -1.6499    0.6085 O   0  0  0  0  0  0  0  0  0  0  0  0
   -0.7539    2.2301   -0.6972 H   0  0  0  0  0  0  0  0  0  0  0  0
   -0.5822    2.0997    1.0645 H   0  0  0  0  0  0  0  0  0  0  0  0
    1.4676    1.5904   -0.5779 H   0  0  0  0  0  0  0  0  0  0  0  0
    1.2548    0.7910    1.0607 H   0  0  0  0  0  0  0  0  0  0  0  0
    0.8608   -0.4205   -1.7229 H   0  0  0  0  0  0  0  0  0  0  0  0
    2.4844   -0.5987    0.5963 H   0  0  0  0  0  0  0  0  0  0  0  0
   -0.2352   -2.2497   -0.8587 H   0  0  0  0  0  0  0  0  0  0  0  0
    0.3132   -1.9904    0.8231 H   0  0  0  0  0  0  0  0  0  0  0  0
  1  2  2  0
  2  3  1  0
  3  4  1  0
  4  5  1  0
  5  6  1  0
  5  7  1  0
  7  8  1  0
  8  9  2  0
  8  2  1  0
  3 10  1  0
  3 11  1  0
  4 12  1  0
  4 13  1  0
  5 14  1  0
  6 15  1  0
  7 16  1  0
  7 17  1  0
M  END
