
     RDKit          3D

 17 18  0  0  0  0  0  0  0  0999 V2000
    1.0110    2.2838   -0.9476 O   0  0  0  0  0  0  0  0  0  0  0  0
    0.5727    1.3731   -0.2691 C   0  0  0  0  0  0  0  0  0  0  0  0
    1.5598    0.2753   -0.0027 C   0  0  0  0  0  0  0  0  0  0  0  0
    0.9386   -0.9673    0.5419 C   0  0  0  0  0  0  0  0  0  0  0  0
   -0.0562   -0.8046    1.4524 O   0  0  0  0  0  0  0  0  0  0  0  0
   -1.3440   -0.8719    0.8652 C   0  0  0  0  0  0  0  0  0  0  0  0
   -1.3472    0.0527   -0.2943 C   0  0  0  0  0  0  0  0  0  0  0  0
   -1.9462    1.2429   -0.3953 O   0  0  0  0  0  0  0  0  0  0  0  0
   -0.7877    1.3799    0.2221 C   0  0  0  0  0  0  0  0  0  0  0  0
    2.3283    0.7073    0.6698 H   0  0  0  0  0  0  0  0  0  0  0  0
    2.0915   -0.0206   -0.9482 H   0  0  0  0  0  0  0  0  0  0  0  0
    1.7673   -1.5469    1.0464 H   0  0  0  0  0  0  0  0  0  0  0  0
    0.5730   -1.6445   -0.2586 H   0  0  0  0  0  0  0  0  0  0  0  0
   -2.1344   -0.7436    1.5937 H   0  0  0  0  0  0  0  0  0  0  0  0
   -1.4006   -1.9273    0.4799 H   0  0  0  0  0  0  0  0  0  0  0  0
   -0.9726   -0.3505   -1.2478 H   0  0  0  0  0  0  0  0  0  0  0  0
   -0.8533    1.5621    1.3358 H   0  0  0  0  0  0  0  0  0  0  0  0
  1  2  2  0
  2  3  1  0
  3  4  1  0
  4  5  1  0
  5  6  1  0
  6  7  1  0
  7  8  1  0
  8  9  1  0
  9  2  1  0
  9  7  1  0
  3 10  1  0
  3 11  1  0
  4 12  1  0
  4 13  1  0
  6 14  1  0
  6 15  1  0
  7 16  1  0
  9 17  1  0
M  END
