
     RDKit          3D

 17 18  0  0  0  0  0  0  0  0999 V2000
    0.5993    2.0731    1.2276 O   0  0  0  0  0  0  0  0  0  0  0  0
    0.4907    1.1573    0.4490 C   0  0  0  0  0  0  0  0  0  0  0  0
    1.5420    0.1050    0.4097 C   0  0  0  0  0  0  0  0  0  0  0  0
    2.0877    0.1524   -0.8934 O   0  0  0  0  0  0  0  0  0  0  0  0
    0.8285   -1.1764    0.6452 C   0  0  0  0  0  0  0  0  0  0  0  0
   -0.3667   -1.3677    0.1458 C   0  0  0  0  0  0  0  0  0  0  0  0
   -1.0756   -0.3780   -0.6556 C   0  0  0  0  0  0  0  0  0  0  0  0
   -1.9676    0.6435    0.0297 C   0  0  0  0  0  0  0  0  0  0  0  0
   -0.6324    0.9953   -0.4917 C   0  0  0  0  0  0  0  0  0  0  0  0
    2.3568    0.2859    1.1395 H   0  0  0  0  0  0  0  0  0  0  0  0
    2.5685   -0.6755   -1.1203 H   0  0  0  0  0  0  0  0  0  0  0  0
    1.3627   -1.9138    1.2446 H   0  0  0  0  0  0  0  0  0  0  0  0
   -0.8717   -2.3297    0.3383 H   0  0  0  0  0  0  0  0  0  0  0  0
   -1.4624   -0.7568   -1.6562 H   0  0  0  0  0  0  0  0  0  0  0  0
   -2.8789    0.9824   -0.5192 H   0  0  0  0  0  0  0  0  0  0  0  0
   -2.0703    0.6142    1.1304 H   0  0  0  0  0  0  0  0  0  0  0  0
   -0.5105    1.5888   -1.4233 H   0  0  0  0  0  0  0  0  0  0  0  0
  1  2  2  0
  2  3  1  0
  3  4  1  0
  3  5  1  0
  5  6  2  0
  6  7  1  0
  7  8  1  0
  8  9  1  0
  9  2  1  0
  9  7  1  0
  3 10  1  0
  4 11  1  0
  5 12  1  0
  6 13  1  0
  7 14  1  0
  8 15  1  0
  8 16  1  0
  9 17  1  0
M  END
