
     RDKit          3D

 17 19  0  0  0  0  0  0  0  0999 V2000
    1.9416   -2.0804   -0.3089 O   0  0  0  0  0  0  0  0  0  0  0  0
    1.2722   -1.0977   -0.0880 C   0  0  0  0  0  0  0  0  0  0  0  0
    1.6372    0.3055   -0.4883 C   0  0  0  0  0  0  0  0  0  0  0  0
    0.3912    1.0977   -0.1850 C   0  0  0  0  0  0  0  0  0  0  0  0
   -0.2250    0.3669    0.9221 C   0  0  0  0  0  0  0  0  0  0  0  0
   -0.0554   -1.0699    0.6274 C   0  0  0  0  0  0  0  0  0  0  0  0
   -1.1508   -0.9698   -0.4077 C   0  0  0  0  0  0  0  0  0  0  0  0
   -0.9506    0.5230   -0.4088 C   0  0  0  0  0  0  0  0  0  0  0  0
   -2.0294    1.3735   -0.3335 O   0  0  0  0  0  0  0  0  0  0  0  0
    1.9616    0.3605   -1.5298 H   0  0  0  0  0  0  0  0  0  0  0  0
    2.4150    0.6260    0.2362 H   0  0  0  0  0  0  0  0  0  0  0  0
    0.4719    2.1915   -0.2265 H   0  0  0  0  0  0  0  0  0  0  0  0
   -0.6265    0.7812    1.8250 H   0  0  0  0  0  0  0  0  0  0  0  0
   -0.1791   -1.8044    1.4139 H   0  0  0  0  0  0  0  0  0  0  0  0
   -2.1045   -1.3203    0.0398 H   0  0  0  0  0  0  0  0  0  0  0  0
   -0.8899   -1.4113   -1.3872 H   0  0  0  0  0  0  0  0  0  0  0  0
   -1.8794    2.1280    0.2992 H   0  0  0  0  0  0  0  0  0  0  0  0
  1  2  2  0
  2  3  1  0
  3  4  1  0
  4  5  1  0
  5  6  1  0
  6  7  1  0
  7  8  1  0
  8  9  1  0
  6  2  1  0
  8  4  1  0
  8  5  1  0
  3 10  1  0
  3 11  1  0
  4 12  1  0
  5 13  1  0
  6 14  1  0
  7 15  1  0
  7 16  1  0
  9 17  1  0
M  END
