
     RDKit          3D

 15 16  0  0  0  0  0  0  0  0999 V2000
   -0.5916    2.5835   -0.2440 O   0  0  0  0  0  0  0  0  0  0  0  0
   -0.4311    1.3493   -0.1897 C   0  0  0  0  0  0  0  0  0  0  0  0
   -1.1684    0.2980   -0.8767 C   0  0  0  0  0  0  0  0  0  0  0  0
   -2.0514    0.4508   -1.7409 O   0  0  0  0  0  0  0  0  0  0  0  0
   -0.6705   -0.9955   -0.3537 C   0  0  0  0  0  0  0  0  0  0  0  0
   -0.3375   -0.5589    1.0890 C   0  0  0  0  0  0  0  0  0  0  0  0
    0.5867    0.5775    0.6138 C   0  0  0  0  0  0  0  0  0  0  0  0
    1.4010   -0.1899   -0.3810 C   0  0  0  0  0  0  0  0  0  0  0  0
    0.6197   -1.2746   -0.8084 O   0  0  0  0  0  0  0  0  0  0  0  0
   -1.3534   -1.8178   -0.3991 H   0  0  0  0  0  0  0  0  0  0  0  0
   -1.2456   -0.1763    1.5369 H   0  0  0  0  0  0  0  0  0  0  0  0
    0.2040   -1.3229    1.6286 H   0  0  0  0  0  0  0  0  0  0  0  0
    1.0761    1.1137    1.3765 H   0  0  0  0  0  0  0  0  0  0  0  0
    1.5767    0.4736   -1.2520 H   0  0  0  0  0  0  0  0  0  0  0  0
    2.3854   -0.5104    0.0007 H   0  0  0  0  0  0  0  0  0  0  0  0
  1  2  2  0
  2  3  1  0
  3  4  2  0
  3  5  1  0
  5  6  1  0
  6  7  1  0
  7  8  1  0
  8  9  1  0
  7  2  1  0
  9  5  1  0
  5 10  1  0
  6 11  1  0
  6 12  1  0
  7 13  1  0
  8 14  1  0
  8 15  1  0
M  END
