
     RDKit          3D

 14 15  0  0  0  0  0  0  0  0999 V2000
   -0.5306    1.9048    1.3622 O   0  0  0  0  0  0  0  0  0  0  0  0
   -0.4076    1.0863    0.4763 C   0  0  0  0  0  0  0  0  0  0  0  0
   -1.4187    0.0260    0.3005 C   0  0  0  0  0  0  0  0  0  0  0  0
   -0.9037   -1.2173    0.1816 O   0  0  0  0  0  0  0  0  0  0  0  0
    0.4010   -1.3323   -0.2305 C   0  0  0  0  0  0  0  0  0  0  0  0
    1.2477   -0.1183    0.0048 C   0  0  0  0  0  0  0  0  0  0  0  0
    1.7571    0.5128   -0.9551 O   0  0  0  0  0  0  0  0  0  0  0  0
    0.7339    1.1567   -0.4042 C   0  0  0  0  0  0  0  0  0  0  0  0
   -2.1525    0.0417    1.1560 H   0  0  0  0  0  0  0  0  0  0  0  0
   -2.0487    0.2501   -0.6046 H   0  0  0  0  0  0  0  0  0  0  0  0
    0.8208   -2.2087    0.3102 H   0  0  0  0  0  0  0  0  0  0  0  0
    0.4411   -1.6060   -1.3077 H   0  0  0  0  0  0  0  0  0  0  0  0
    1.7398   -0.1194    1.0188 H   0  0  0  0  0  0  0  0  0  0  0  0
    0.3206    1.6237   -1.3083 H   0  0  0  0  0  0  0  0  0  0  0  0
  1  2  2  0
  2  3  1  0
  3  4  1  0
  4  5  1  0
  5  6  1  0
  6  7  1  0
  7  8  1  0
  8  2  1  0
  8  6  1  0
  3  9  1  0
  3 10  1  0
  5 11  1  0
  5 12  1  0
  6 13  1  0
  8 14  1  0
M  END
