
     RDKit          3D

 15 17  0  0  0  0  0  0  0  0999 V2000
    0.2980    1.4081    1.9940 O   0  0  0  0  0  0  0  0  0  0  0  0
   -0.0947    0.6616    1.1251 C   0  0  0  0  0  0  0  0  0  0  0  0
    0.7460   -0.3807    0.5006 C   0  0  0  0  0  0  0  0  0  0  0  0
    1.7468    0.1528   -0.4628 C   0  0  0  0  0  0  0  0  0  0  0  0
    0.7497    0.0938   -1.4618 O   0  0  0  0  0  0  0  0  0  0  0  0
   -0.0399   -0.7946   -0.7179 C   0  0  0  0  0  0  0  0  0  0  0  0
   -1.4589   -0.3353   -0.4865 C   0  0  0  0  0  0  0  0  0  0  0  0
   -1.6295    1.0423   -0.7942 O   0  0  0  0  0  0  0  0  0  0  0  0
   -1.4562    0.6588    0.5453 C   0  0  0  0  0  0  0  0  0  0  0  0
    1.0725   -1.2062    1.1579 H   0  0  0  0  0  0  0  0  0  0  0  0
    2.5692   -0.5042   -0.7551 H   0  0  0  0  0  0  0  0  0  0  0  0
    2.0616    1.1753   -0.1927 H   0  0  0  0  0  0  0  0  0  0  0  0
    0.0663   -1.8570   -1.0163 H   0  0  0  0  0  0  0  0  0  0  0  0
   -2.3010   -1.0113   -0.6093 H   0  0  0  0  0  0  0  0  0  0  0  0
   -2.3300    0.8965    1.1737 H   0  0  0  0  0  0  0  0  0  0  0  0
  1  2  2  0
  2  3  1  0
  3  4  1  0
  4  5  1  0
  5  6  1  0
  6  7  1  0
  7  8  1  0
  8  9  1  0
  9  2  1  0
  6  3  1  0
  9  7  1  0
  3 10  1  0
  4 11  1  0
  4 12  1  0
  6 13  1  0
  7 14  1  0
  9 15  1  0
M  END
