
     RDKit          3D

 17 19  0  0  0  0  0  0  0  0999 V2000
   -0.8267    0.7684   -2.2777 O   0  0  0  0  0  0  0  0  0  0  0  0
   -0.9222    0.4032   -1.1213 C   0  0  0  0  0  0  0  0  0  0  0  0
   -2.0441    0.2313   -0.1270 C   0  0  0  0  0  0  0  0  0  0  0  0
   -1.0830   -0.5261    0.7914 C   0  0  0  0  0  0  0  0  0  0  0  0
    0.0014   -0.0545   -0.1075 C   0  0  0  0  0  0  0  0  0  0  0  0
    1.0047    0.8929    0.4412 C   0  0  0  0  0  0  0  0  0  0  0  0
    2.0786   -0.1494    0.3330 C   0  0  0  0  0  0  0  0  0  0  0  0
    1.8355   -1.4672    0.6072 O   0  0  0  0  0  0  0  0  0  0  0  0
    1.0823   -0.9987   -0.4684 C   0  0  0  0  0  0  0  0  0  0  0  0
   -2.3667    1.1490    0.3640 H   0  0  0  0  0  0  0  0  0  0  0  0
   -2.8902   -0.3543   -0.4954 H   0  0  0  0  0  0  0  0  0  0  0  0
   -1.0846   -0.1645    1.8254 H   0  0  0  0  0  0  0  0  0  0  0  0
   -1.3007   -1.6223    0.6789 H   0  0  0  0  0  0  0  0  0  0  0  0
    1.1952    1.7217   -0.3016 H   0  0  0  0  0  0  0  0  0  0  0  0
    0.8575    1.2655    1.4566 H   0  0  0  0  0  0  0  0  0  0  0  0
    3.0515    0.0829   -0.1090 H   0  0  0  0  0  0  0  0  0  0  0  0
    1.4117   -1.1780   -1.4899 H   0  0  0  0  0  0  0  0  0  0  0  0
  1  2  2  0
  2  3  1  0
  3  4  1  0
  4  5  1  0
  5  6  1  0
  6  7  1  0
  7  8  1  0
  8  9  1  0
  5  2  1  0
  9  7  1  0
  9  5  1  0
  3 10  1  0
  3 11  1  0
  4 12  1  0
  4 13  1  0
  6 14  1  0
  6 15  1  0
  7 16  1  0
  9 17  1  0
M  END
