
     RDKit          3D

 19 20  0  0  0  0  0  0  0  0999 V2000
    2.1861    1.9000    0.3355 O   0  0  0  0  0  0  0  0  0  0  0  0
    1.3598    1.0413    0.1102 C   0  0  0  0  0  0  0  0  0  0  0  0
    1.8307   -0.3764    0.0777 C   0  0  0  0  0  0  0  0  0  0  0  0
    0.6235   -1.2105    0.5204 C   0  0  0  0  0  0  0  0  0  0  0  0
   -0.4359   -1.0125   -0.5278 C   0  0  0  0  0  0  0  0  0  0  0  0
   -1.7192   -1.4030   -0.1481 O   0  0  0  0  0  0  0  0  0  0  0  0
   -1.9981   -0.1230    0.3130 C   0  0  0  0  0  0  0  0  0  0  0  0
   -0.9211    0.3828   -0.6490 C   0  0  0  0  0  0  0  0  0  0  0  0
   -0.0305    1.4332   -0.1140 C   0  0  0  0  0  0  0  0  0  0  0  0
    2.7065   -0.5473    0.6999 H   0  0  0  0  0  0  0  0  0  0  0  0
    2.0179   -0.6386   -0.9841 H   0  0  0  0  0  0  0  0  0  0  0  0
    0.2167   -0.8149    1.4778 H   0  0  0  0  0  0  0  0  0  0  0  0
    0.8725   -2.2861    0.5689 H   0  0  0  0  0  0  0  0  0  0  0  0
   -0.0861   -1.4067   -1.4990 H   0  0  0  0  0  0  0  0  0  0  0  0
   -3.0103    0.2596    0.0913 H   0  0  0  0  0  0  0  0  0  0  0  0
   -1.7381    0.0586    1.3825 H   0  0  0  0  0  0  0  0  0  0  0  0
   -1.3933    0.5662   -1.6334 H   0  0  0  0  0  0  0  0  0  0  0  0
   -0.4575    1.8884    0.8253 H   0  0  0  0  0  0  0  0  0  0  0  0
   -0.0234    2.2888   -0.8470 H   0  0  0  0  0  0  0  0  0  0  0  0
  1  2  2  0
  2  3  1  0
  3  4  1  0
  4  5  1  0
  5  6  1  0
  6  7  1  0
  7  8  1  0
  8  9  1  0
  9  2  1  0
  8  5  1  0
  3 10  1  0
  3 11  1  0
  4 12  1  0
  4 13  1  0
  5 14  1  0
  7 15  1  0
  7 16  1  0
  8 17  1  0
  9 18  1  0
  9 19  1  0
M  END
