
     RDKit          3D

 15 16  0  0  0  0  0  0  0  0999 V2000
   -0.9943   -2.8785   -0.4456 O   0  0  0  0  0  0  0  0  0  0  0  0
   -0.8865   -1.6286   -0.3494 C   0  0  0  0  0  0  0  0  0  0  0  0
   -1.3135   -0.7888    0.6743 O   0  0  0  0  0  0  0  0  0  0  0  0
   -1.2190    0.2726   -0.2506 C   0  0  0  0  0  0  0  0  0  0  0  0
   -0.4136    1.4340    0.1527 C   0  0  0  0  0  0  0  0  0  0  0  0
    0.8547    1.2635   -0.1350 C   0  0  0  0  0  0  0  0  0  0  0  0
    1.0375   -0.0568   -0.7744 C   0  0  0  0  0  0  0  0  0  0  0  0
    1.6881   -0.9644    0.0877 O   0  0  0  0  0  0  0  0  0  0  0  0
   -0.3251   -0.5149   -1.1568 C   0  0  0  0  0  0  0  0  0  0  0  0
   -2.2105    0.5399   -0.6706 H   0  0  0  0  0  0  0  0  0  0  0  0
   -0.8478    2.3285    0.6372 H   0  0  0  0  0  0  0  0  0  0  0  0
    1.6778    2.0009    0.0694 H   0  0  0  0  0  0  0  0  0  0  0  0
    1.6508    0.0790   -1.6873 H   0  0  0  0  0  0  0  0  0  0  0  0
    1.8858   -0.5246    0.9702 H   0  0  0  0  0  0  0  0  0  0  0  0
   -0.5843   -0.5619   -2.2135 H   0  0  0  0  0  0  0  0  0  0  0  0
  1  2  2  0
  2  3  1  0
  3  4  1  0
  4  5  1  0
  5  6  2  0
  6  7  1  0
  7  8  1  0
  7  9  1  0
  9  2  1  0
  9  4  1  0
  4 10  1  0
  5 11  1  0
  6 12  1  0
  7 13  1  0
  8 14  1  0
  9 15  1  0
M  END
