
     RDKit          3D

 15 16  0  0  0  0  0  0  0  0999 V2000
    0.0748   -1.7769    1.4945 O   0  0  0  0  0  0  0  0  0  0  0  0
    0.4963   -0.8961    0.7088 C   0  0  0  0  0  0  0  0  0  0  0  0
   -0.3487   -0.0628   -0.1641 C   0  0  0  0  0  0  0  0  0  0  0  0
   -1.8096   -0.2243   -0.3175 C   0  0  0  0  0  0  0  0  0  0  0  0
   -2.4915   -0.0585    0.8967 O   0  0  0  0  0  0  0  0  0  0  0  0
    0.3962    0.8329   -0.7741 C   0  0  0  0  0  0  0  0  0  0  0  0
    1.8114    0.6902   -0.3723 C   0  0  0  0  0  0  0  0  0  0  0  0
    2.4275   -0.4663   -0.7792 O   0  0  0  0  0  0  0  0  0  0  0  0
    1.8908   -0.5221    0.5019 C   0  0  0  0  0  0  0  0  0  0  0  0
   -2.0514   -1.2461   -0.6733 H   0  0  0  0  0  0  0  0  0  0  0  0
   -2.1992    0.4959   -1.0609 H   0  0  0  0  0  0  0  0  0  0  0  0
   -3.2559    0.5761    0.8099 H   0  0  0  0  0  0  0  0  0  0  0  0
    0.0358    1.5614   -1.4621 H   0  0  0  0  0  0  0  0  0  0  0  0
    2.3993    1.5883   -0.1122 H   0  0  0  0  0  0  0  0  0  0  0  0
    2.6242   -0.4916    1.3038 H   0  0  0  0  0  0  0  0  0  0  0  0
  1  2  2  0
  2  3  1  0
  3  4  1  0
  4  5  1  0
  3  6  2  0
  6  7  1  0
  7  8  1  0
  8  9  1  0
  9  2  1  0
  9  7  1  0
  4 10  1  0
  4 11  1  0
  5 12  1  0
  6 13  1  0
  7 14  1  0
  9 15  1  0
M  END
