
     RDKit          3D

 17 17  0  0  0  0  0  0  0  0999 V2000
   -2.5527    0.7990    1.3077 O   0  0  0  0  0  0  0  0  0  0  0  0
   -1.7046    0.3672    0.5842 C   0  0  0  0  0  0  0  0  0  0  0  0
   -1.8849   -0.5994   -0.5220 C   0  0  0  0  0  0  0  0  0  0  0  0
   -0.6113   -0.7336   -1.1100 O   0  0  0  0  0  0  0  0  0  0  0  0
    0.2675   -0.6212   -0.0174 C   0  0  0  0  0  0  0  0  0  0  0  0
    1.6920   -0.4853   -0.4584 C   0  0  0  0  0  0  0  0  0  0  0  0
    2.4880   -0.3813    0.6681 O   0  0  0  0  0  0  0  0  0  0  0  0
   -0.2590    0.6799    0.5997 C   0  0  0  0  0  0  0  0  0  0  0  0
    0.0002    1.7039   -0.2993 O   0  0  0  0  0  0  0  0  0  0  0  0
   -2.2569   -1.5743   -0.2192 H   0  0  0  0  0  0  0  0  0  0  0  0
   -2.6100   -0.1640   -1.2484 H   0  0  0  0  0  0  0  0  0  0  0  0
    0.1052   -1.4744    0.6415 H   0  0  0  0  0  0  0  0  0  0  0  0
    1.7815    0.4619   -1.0557 H   0  0  0  0  0  0  0  0  0  0  0  0
    2.0069   -1.3400   -1.0583 H   0  0  0  0  0  0  0  0  0  0  0  0
    3.3949   -0.0831    0.4944 H   0  0  0  0  0  0  0  0  0  0  0  0
    0.1542    0.8450    1.6010 H   0  0  0  0  0  0  0  0  0  0  0  0
   -0.0111    2.5995    0.0921 H   0  0  0  0  0  0  0  0  0  0  0  0
  1  2  2  0
  2  3  1  0
  3  4  1  0
  4  5  1  0
  5  6  1  0
  6  7  1  0
  5  8  1  0
  8  9  1  0
  8  2  1  0
  3 10  1  0
  3 11  1  0
  5 12  1  0
  6 13  1  0
  6 14  1  0
  7 15  1  0
  8 16  1  0
  9 17  1  0
M  END
