
     RDKit          3D

 15 16  0  0  0  0  0  0  0  0999 V2000
   -2.0542    1.4288    1.1951 O   0  0  0  0  0  0  0  0  0  0  0  0
   -1.3619    0.7760    0.4783 C   0  0  0  0  0  0  0  0  0  0  0  0
   -1.6391   -0.5950    0.0266 C   0  0  0  0  0  0  0  0  0  0  0  0
   -0.2741   -1.1973    0.2060 C   0  0  0  0  0  0  0  0  0  0  0  0
   -0.0905   -2.3251    0.5761 O   0  0  0  0  0  0  0  0  0  0  0  0
    0.6771   -0.1514   -0.1532 C   0  0  0  0  0  0  0  0  0  0  0  0
    2.0732   -0.1693   -0.0915 C   0  0  0  0  0  0  0  0  0  0  0  0
    1.4349   -0.4431   -1.3123 O   0  0  0  0  0  0  0  0  0  0  0  0
   -0.0824    1.1605   -0.1266 C   0  0  0  0  0  0  0  0  0  0  0  0
   -2.3850   -1.1241    0.6539 H   0  0  0  0  0  0  0  0  0  0  0  0
   -1.9213   -0.5926   -1.0562 H   0  0  0  0  0  0  0  0  0  0  0  0
    2.6672   -0.9919    0.3845 H   0  0  0  0  0  0  0  0  0  0  0  0
    2.6416    0.7837   -0.1110 H   0  0  0  0  0  0  0  0  0  0  0  0
   -0.1937    1.5735   -1.1578 H   0  0  0  0  0  0  0  0  0  0  0  0
    0.5081    1.8673    0.4883 H   0  0  0  0  0  0  0  0  0  0  0  0
  1  2  2  0
  2  3  1  0
  3  4  1  0
  4  5  2  0
  4  6  1  0
  6  7  1  0
  7  8  1  0
  6  9  1  0
  9  2  1  0
  8  6  1  0
  3 10  1  0
  3 11  1  0
  7 12  1  0
  7 13  1  0
  9 14  1  0
  9 15  1  0
M  END
