
     RDKit          3D

 17 18  0  0  0  0  0  0  0  0999 V2000
    1.7022    0.0965    2.1278 O   0  0  0  0  0  0  0  0  0  0  0  0
    0.9627    0.0909    1.1950 C   0  0  0  0  0  0  0  0  0  0  0  0
    1.0933    0.8170   -0.0969 C   0  0  0  0  0  0  0  0  0  0  0  0
    2.2802    0.6145   -0.7354 O   0  0  0  0  0  0  0  0  0  0  0  0
   -0.1001    0.2019   -0.7853 C   0  0  0  0  0  0  0  0  0  0  0  0
   -0.1152   -1.2617   -0.3302 C   0  0  0  0  0  0  0  0  0  0  0  0
   -0.3130   -0.6382    1.0312 C   0  0  0  0  0  0  0  0  0  0  0  0
   -1.1617    0.3924    0.3088 C   0  0  0  0  0  0  0  0  0  0  0  0
   -2.4197   -0.0167   -0.0581 O   0  0  0  0  0  0  0  0  0  0  0  0
    0.8376    1.9070    0.0439 H   0  0  0  0  0  0  0  0  0  0  0  0
    2.2556    0.1365   -1.5767 H   0  0  0  0  0  0  0  0  0  0  0  0
   -0.3475    0.4352   -1.7784 H   0  0  0  0  0  0  0  0  0  0  0  0
   -0.9767   -1.7876   -0.7542 H   0  0  0  0  0  0  0  0  0  0  0  0
    0.8453   -1.7686   -0.4182 H   0  0  0  0  0  0  0  0  0  0  0  0
   -0.7276   -1.1973    1.8179 H   0  0  0  0  0  0  0  0  0  0  0  0
   -1.0820    1.3862    0.8036 H   0  0  0  0  0  0  0  0  0  0  0  0
   -2.7335    0.5920   -0.7949 H   0  0  0  0  0  0  0  0  0  0  0  0
  1  2  2  0
  2  3  1  0
  3  4  1  0
  3  5  1  0
  5  6  1  0
  6  7  1  0
  7  8  1  0
  8  9  1  0
  7  2  1  0
  8  5  1  0
  3 10  1  0
  4 11  1  0
  5 12  1  0
  6 13  1  0
  6 14  1  0
  7 15  1  0
  8 16  1  0
  9 17  1  0
M  END
