
     RDKit          3D

 19 20  0  0  0  0  0  0  0  0999 V2000
   -2.6200   -2.1314    0.7714 O   0  0  0  0  0  0  0  0  0  0  0  0
   -1.9186   -1.1094    0.5803 C   0  0  0  0  0  0  0  0  0  0  0  0
   -2.2241    0.0037   -0.3576 C   0  0  0  0  0  0  0  0  0  0  0  0
   -0.8086    0.5233   -0.6471 C   0  0  0  0  0  0  0  0  0  0  0  0
   -0.1975    0.4224    0.7222 C   0  0  0  0  0  0  0  0  0  0  0  0
    1.2968    0.3620    0.7125 C   0  0  0  0  0  0  0  0  0  0  0  0
    1.8870   -0.8135   -0.0440 C   0  0  0  0  0  0  0  0  0  0  0  0
    2.1022    0.6195   -0.4879 C   0  0  0  0  0  0  0  0  0  0  0  0
   -0.7196   -0.7941    1.1920 O   0  0  0  0  0  0  0  0  0  0  0  0
   -2.7341   -0.3214   -1.2598 H   0  0  0  0  0  0  0  0  0  0  0  0
   -2.7338    0.7917    0.2180 H   0  0  0  0  0  0  0  0  0  0  0  0
   -0.9290    1.5645   -0.9919 H   0  0  0  0  0  0  0  0  0  0  0  0
   -0.3003   -0.0887   -1.3936 H   0  0  0  0  0  0  0  0  0  0  0  0
   -0.5612    1.2774    1.3251 H   0  0  0  0  0  0  0  0  0  0  0  0
    1.7722    0.5593    1.6947 H   0  0  0  0  0  0  0  0  0  0  0  0
    1.1918   -1.4500   -0.6181 H   0  0  0  0  0  0  0  0  0  0  0  0
    2.7314   -1.3550    0.3894 H   0  0  0  0  0  0  0  0  0  0  0  0
    3.1392    0.9982   -0.3628 H   0  0  0  0  0  0  0  0  0  0  0  0
    1.6263    0.9413   -1.4428 H   0  0  0  0  0  0  0  0  0  0  0  0
  1  2  2  0
  2  3  1  0
  3  4  1  0
  4  5  1  0
  5  6  1  0
  6  7  1  0
  7  8  1  0
  5  9  1  0
  9  2  1  0
  8  6  1  0
  3 10  1  0
  3 11  1  0
  4 12  1  0
  4 13  1  0
  5 14  1  0
  6 15  1  0
  7 16  1  0
  7 17  1  0
  8 18  1  0
  8 19  1  0
M  END
