
     RDKit          3D

 17 19  0  0  0  0  0  0  0  0999 V2000
    1.9702    2.1820    0.9609 O   0  0  0  0  0  0  0  0  0  0  0  0
    1.1635    1.3514    0.4737 C   0  0  0  0  0  0  0  0  0  0  0  0
    0.0858    1.7151   -0.3104 O   0  0  0  0  0  0  0  0  0  0  0  0
   -1.1313    1.0622   -0.1381 C   0  0  0  0  0  0  0  0  0  0  0  0
   -1.5820   -0.0059   -1.0568 C   0  0  0  0  0  0  0  0  0  0  0  0
   -1.1241   -0.2972    0.3723 C   0  0  0  0  0  0  0  0  0  0  0  0
    0.1874   -0.9486    0.5836 C   0  0  0  0  0  0  0  0  0  0  0  0
    1.2028   -1.0242   -0.4948 C   0  0  0  0  0  0  0  0  0  0  0  0
    1.3521   -0.0938    0.7354 C   0  0  0  0  0  0  0  0  0  0  0  0
   -1.9586    1.7609    0.1875 H   0  0  0  0  0  0  0  0  0  0  0  0
   -2.6597   -0.1693   -1.2146 H   0  0  0  0  0  0  0  0  0  0  0  0
   -0.9432   -0.3637   -1.8849 H   0  0  0  0  0  0  0  0  0  0  0  0
   -1.9267   -0.5390    1.1297 H   0  0  0  0  0  0  0  0  0  0  0  0
    0.1639   -1.8673    1.2422 H   0  0  0  0  0  0  0  0  0  0  0  0
    1.0957   -0.5048   -1.4449 H   0  0  0  0  0  0  0  0  0  0  0  0
    1.8983   -1.8912   -0.5387 H   0  0  0  0  0  0  0  0  0  0  0  0
    2.2061   -0.3667    1.3980 H   0  0  0  0  0  0  0  0  0  0  0  0
  1  2  2  0
  2  3  1  0
  3  4  1  0
  4  5  1  0
  5  6  1  0
  6  7  1  0
  7  8  1  0
  8  9  1  0
  9  2  1  0
  6  4  1  0
  9  7  1  0
  4 10  1  0
  5 11  1  0
  5 12  1  0
  6 13  1  0
  7 14  1  0
  8 15  1  0
  8 16  1  0
  9 17  1  0
M  END
