
     RDKit          3D

 16 17  0  0  0  0  0  0  0  0999 V2000
    0.5873    1.8776    1.3292 O   0  0  0  0  0  0  0  0  0  0  0  0
    0.7629    0.8928    0.6698 C   0  0  0  0  0  0  0  0  0  0  0  0
    1.8551    0.2027   -0.1060 C   0  0  0  0  0  0  0  0  0  0  0  0
    1.0564   -1.0874    0.0610 C   0  0  0  0  0  0  0  0  0  0  0  0
   -0.1116   -0.2321    0.2644 C   0  0  0  0  0  0  0  0  0  0  0  0
   -1.0046    0.1090   -0.8556 C   0  0  0  0  0  0  0  0  0  0  0  0
   -1.9923    0.1675    0.3111 C   0  0  0  0  0  0  0  0  0  0  0  0
   -1.1069   -0.5922    1.1123 O   0  0  0  0  0  0  0  0  0  0  0  0
    2.8166    0.2305    0.4097 H   0  0  0  0  0  0  0  0  0  0  0  0
    1.8807    0.4673   -1.1741 H   0  0  0  0  0  0  0  0  0  0  0  0
    1.0821   -1.7658   -0.7994 H   0  0  0  0  0  0  0  0  0  0  0  0
    1.3690   -1.6104    0.9951 H   0  0  0  0  0  0  0  0  0  0  0  0
   -1.2267   -0.6319   -1.6205 H   0  0  0  0  0  0  0  0  0  0  0  0
   -0.8990    1.1170   -1.3221 H   0  0  0  0  0  0  0  0  0  0  0  0
   -2.9216   -0.3438    0.0632 H   0  0  0  0  0  0  0  0  0  0  0  0
   -2.1475    1.1993    0.6620 H   0  0  0  0  0  0  0  0  0  0  0  0
  1  2  2  0
  2  3  1  0
  3  4  1  0
  4  5  1  0
  5  6  1  0
  6  7  1  0
  7  8  1  0
  5  2  1  0
  8  5  1  0
  3  9  1  0
  3 10  1  0
  4 11  1  0
  4 12  1  0
  6 13  1  0
  6 14  1  0
  7 15  1  0
  7 16  1  0
M  END
