
     RDKit          3D

 17 18  0  0  0  0  0  0  0  0999 V2000
   -3.0093    0.2559    0.2283 O   0  0  0  0  0  0  0  0  0  0  0  0
   -1.8036    0.2059    0.0946 C   0  0  0  0  0  0  0  0  0  0  0  0
   -1.0625   -0.9340   -0.4956 C   0  0  0  0  0  0  0  0  0  0  0  0
    0.2227   -0.3019   -0.9478 C   0  0  0  0  0  0  0  0  0  0  0  0
    1.2974   -1.1669   -0.7201 O   0  0  0  0  0  0  0  0  0  0  0  0
    1.9321   -0.7519    0.4246 C   0  0  0  0  0  0  0  0  0  0  0  0
    1.0159    0.0633    1.1277 O   0  0  0  0  0  0  0  0  0  0  0  0
    0.4576    0.7776    0.0555 C   0  0  0  0  0  0  0  0  0  0  0  0
   -0.8852    1.2926    0.5079 C   0  0  0  0  0  0  0  0  0  0  0  0
   -1.6250   -1.4090   -1.3229 H   0  0  0  0  0  0  0  0  0  0  0  0
   -0.8056   -1.6510    0.3184 H   0  0  0  0  0  0  0  0  0  0  0  0
    0.1882    0.0603   -1.9938 H   0  0  0  0  0  0  0  0  0  0  0  0
    2.7984   -0.0641    0.2019 H   0  0  0  0  0  0  0  0  0  0  0  0
    2.2125   -1.5547    1.1190 H   0  0  0  0  0  0  0  0  0  0  0  0
    1.1226    1.5555   -0.3235 H   0  0  0  0  0  0  0  0  0  0  0  0
   -0.9122    1.3475    1.6351 H   0  0  0  0  0  0  0  0  0  0  0  0
   -1.1441    2.2749    0.0906 H   0  0  0  0  0  0  0  0  0  0  0  0
  1  2  2  0
  2  3  1  0
  3  4  1  0
  4  5  1  0
  5  6  1  0
  6  7  1  0
  7  8  1  0
  8  9  1  0
  9  2  1  0
  8  4  1  0
  3 10  1  0
  3 11  1  0
  4 12  1  0
  6 13  1  0
  6 14  1  0
  8 15  1  0
  9 16  1  0
  9 17  1  0
M  END
