
     RDKit          3D

 16 16  0  0  0  0  0  0  0  0999 V2000
   -1.8529   -0.2576    2.0808 O   0  0  0  0  0  0  0  0  0  0  0  0
   -1.3210   -0.0602    1.0159 C   0  0  0  0  0  0  0  0  0  0  0  0
   -0.4252    1.0595    0.5472 C   0  0  0  0  0  0  0  0  0  0  0  0
    0.0685    0.1311   -0.5067 C   0  0  0  0  0  0  0  0  0  0  0  0
    0.2953    0.6356   -1.7576 O   0  0  0  0  0  0  0  0  0  0  0  0
    1.2560   -0.7117   -0.0646 C   0  0  0  0  0  0  0  0  0  0  0  0
    2.3831    0.0868   -0.0460 O   0  0  0  0  0  0  0  0  0  0  0  0
   -1.2000   -0.6759   -0.3378 C   0  0  0  0  0  0  0  0  0  0  0  0
   -0.9735    1.9485    0.2428 H   0  0  0  0  0  0  0  0  0  0  0  0
    0.3622    1.3272    1.2764 H   0  0  0  0  0  0  0  0  0  0  0  0
   -0.4698    1.0481   -2.1913 H   0  0  0  0  0  0  0  0  0  0  0  0
    0.9916   -1.0960    0.9479 H   0  0  0  0  0  0  0  0  0  0  0  0
    1.3170   -1.5664   -0.7535 H   0  0  0  0  0  0  0  0  0  0  0  0
    2.6132    0.3051    0.8816 H   0  0  0  0  0  0  0  0  0  0  0  0
   -2.0166   -0.4017   -1.0425 H   0  0  0  0  0  0  0  0  0  0  0  0
   -1.0281   -1.7724   -0.2927 H   0  0  0  0  0  0  0  0  0  0  0  0
  1  2  2  0
  2  3  1  0
  3  4  1  0
  4  5  1  0
  4  6  1  0
  6  7  1  0
  4  8  1  0
  8  2  1  0
  3  9  1  0
  3 10  1  0
  5 11  1  0
  6 12  1  0
  6 13  1  0
  7 14  1  0
  8 15  1  0
  8 16  1  0
M  END
