
     RDKit          3D

 17 18  0  0  0  0  0  0  0  0999 V2000
   -1.4155   -2.6934    0.5881 O   0  0  0  0  0  0  0  0  0  0  0  0
   -0.7406   -1.6747    0.3015 C   0  0  0  0  0  0  0  0  0  0  0  0
   -1.2927   -0.3579    0.6666 C   0  0  0  0  0  0  0  0  0  0  0  0
   -0.5912    0.8025    0.0891 C   0  0  0  0  0  0  0  0  0  0  0  0
   -1.5087    1.5268   -0.6943 O   0  0  0  0  0  0  0  0  0  0  0  0
    0.6227    0.5608   -0.6964 C   0  0  0  0  0  0  0  0  0  0  0  0
    1.8612    0.1949    0.1543 C   0  0  0  0  0  0  0  0  0  0  0  0
    1.1986   -0.7567   -0.7747 C   0  0  0  0  0  0  0  0  0  0  0  0
    0.4603   -1.8395   -0.3286 O   0  0  0  0  0  0  0  0  0  0  0  0
   -1.3260   -0.3241    1.7950 H   0  0  0  0  0  0  0  0  0  0  0  0
   -2.3846   -0.3912    0.3759 H   0  0  0  0  0  0  0  0  0  0  0  0
   -0.3100    1.4955    0.9372 H   0  0  0  0  0  0  0  0  0  0  0  0
   -1.7451    2.3937   -0.2984 H   0  0  0  0  0  0  0  0  0  0  0  0
    0.8235    1.2885   -1.5178 H   0  0  0  0  0  0  0  0  0  0  0  0
    1.7297    0.0632    1.2270 H   0  0  0  0  0  0  0  0  0  0  0  0
    2.7999    0.6948   -0.1318 H   0  0  0  0  0  0  0  0  0  0  0  0
    1.8184   -0.9833   -1.6928 H   0  0  0  0  0  0  0  0  0  0  0  0
  1  2  2  0
  2  3  1  0
  3  4  1  0
  4  5  1  0
  4  6  1  0
  6  7  1  0
  7  8  1  0
  8  9  1  0
  9  2  1  0
  8  6  1  0
  3 10  1  0
  3 11  1  0
  4 12  1  0
  5 13  1  0
  6 14  1  0
  7 15  1  0
  7 16  1  0
  8 17  1  0
M  END
