
     RDKit          3D

 19 20  0  0  0  0  0  0  0  0999 V2000
    2.6919    1.0990    0.8109 O   0  0  0  0  0  0  0  0  0  0  0  0
    1.6730    0.5113    0.5712 C   0  0  0  0  0  0  0  0  0  0  0  0
    0.3124    0.8970    0.9602 C   0  0  0  0  0  0  0  0  0  0  0  0
   -0.5854    0.0511    0.1122 C   0  0  0  0  0  0  0  0  0  0  0  0
   -2.0117    0.0140    0.5035 C   0  0  0  0  0  0  0  0  0  0  0  0
   -1.5700    0.5923   -0.8173 C   0  0  0  0  0  0  0  0  0  0  0  0
    0.1778   -1.1915   -0.2276 C   0  0  0  0  0  0  0  0  0  0  0  0
    1.6306   -0.7723   -0.2015 C   0  0  0  0  0  0  0  0  0  0  0  0
    2.0519   -0.4761   -1.5048 O   0  0  0  0  0  0  0  0  0  0  0  0
    0.1291    0.6114    2.0324 H   0  0  0  0  0  0  0  0  0  0  0  0
    0.1307    1.9751    0.8864 H   0  0  0  0  0  0  0  0  0  0  0  0
   -2.4084    0.7765    1.2038 H   0  0  0  0  0  0  0  0  0  0  0  0
   -2.5037   -0.9637    0.5535 H   0  0  0  0  0  0  0  0  0  0  0  0
   -1.8471   -0.0594   -1.6845 H   0  0  0  0  0  0  0  0  0  0  0  0
   -1.6959    1.6754   -1.0178 H   0  0  0  0  0  0  0  0  0  0  0  0
   -0.0593   -1.6058   -1.2280 H   0  0  0  0  0  0  0  0  0  0  0  0
   -0.0544   -1.9736    0.5176 H   0  0  0  0  0  0  0  0  0  0  0  0
    2.2585   -1.5585    0.2649 H   0  0  0  0  0  0  0  0  0  0  0  0
    1.6801    0.3979   -1.7352 H   0  0  0  0  0  0  0  0  0  0  0  0
  1  2  2  0
  2  3  1  0
  3  4  1  0
  4  5  1  0
  5  6  1  0
  4  7  1  0
  7  8  1  0
  8  9  1  0
  8  2  1  0
  6  4  1  0
  3 10  1  0
  3 11  1  0
  5 12  1  0
  5 13  1  0
  6 14  1  0
  6 15  1  0
  7 16  1  0
  7 17  1  0
  8 18  1  0
  9 19  1  0
M  END
