
     RDKit          3D

 19 21  0  0  0  0  0  0  0  0999 V2000
    0.4850    2.1984   -0.5485 O   0  0  0  0  0  0  0  0  0  0  0  0
    0.2892    1.3159    0.2664 C   0  0  0  0  0  0  0  0  0  0  0  0
   -1.0027    1.0355    0.9322 C   0  0  0  0  0  0  0  0  0  0  0  0
   -2.1725    0.5645    0.1076 C   0  0  0  0  0  0  0  0  0  0  0  0
   -1.2825   -0.4245    0.8103 C   0  0  0  0  0  0  0  0  0  0  0  0
   -0.3176   -1.1405   -0.1040 C   0  0  0  0  0  0  0  0  0  0  0  0
    1.1009   -1.0260    0.3492 C   0  0  0  0  0  0  0  0  0  0  0  0
    2.1160   -0.3018   -0.4489 C   0  0  0  0  0  0  0  0  0  0  0  0
    1.4426    0.4461    0.6242 C   0  0  0  0  0  0  0  0  0  0  0  0
   -1.1881    1.5749    1.8793 H   0  0  0  0  0  0  0  0  0  0  0  0
   -2.0402    0.7300   -0.9854 H   0  0  0  0  0  0  0  0  0  0  0  0
   -3.1954    0.7573    0.4642 H   0  0  0  0  0  0  0  0  0  0  0  0
   -1.6478   -0.9437    1.6991 H   0  0  0  0  0  0  0  0  0  0  0  0
   -0.5981   -2.2166   -0.0843 H   0  0  0  0  0  0  0  0  0  0  0  0
   -0.3950   -0.7847   -1.1635 H   0  0  0  0  0  0  0  0  0  0  0  0
    1.4708   -1.7916    1.0315 H   0  0  0  0  0  0  0  0  0  0  0  0
    3.1812   -0.5502   -0.3097 H   0  0  0  0  0  0  0  0  0  0  0  0
    1.8605   -0.0275   -1.4954 H   0  0  0  0  0  0  0  0  0  0  0  0
    1.8937    0.5846    1.6302 H   0  0  0  0  0  0  0  0  0  0  0  0
  1  2  2  0
  2  3  1  0
  3  4  1  0
  4  5  1  0
  5  6  1  0
  6  7  1  0
  7  8  1  0
  8  9  1  0
  9  2  1  0
  5  3  1  0
  9  7  1  0
  3 10  1  0
  4 11  1  0
  4 12  1  0
  5 13  1  0
  6 14  1  0
  6 15  1  0
  7 16  1  0
  8 17  1  0
  8 18  1  0
  9 19  1  0
M  END
