
     RDKit          3D

 14 15  0  0  0  0  0  0  0  0999 V2000
   -1.9607   -1.7487    0.4322 O   0  0  0  0  0  0  0  0  0  0  0  0
   -1.0577   -0.9965    0.2453 C   0  0  0  0  0  0  0  0  0  0  0  0
   -0.7998    0.2219   -0.5181 C   0  0  0  0  0  0  0  0  0  0  0  0
   -0.4220    1.1861    0.5686 C   0  0  0  0  0  0  0  0  0  0  0  0
    0.3920    0.3452    1.3670 O   0  0  0  0  0  0  0  0  0  0  0  0
    0.3473   -0.8471    0.6770 C   0  0  0  0  0  0  0  0  0  0  0  0
    0.5875   -0.3987   -0.7770 C   0  0  0  0  0  0  0  0  0  0  0  0
    1.4894    0.6196   -0.9214 O   0  0  0  0  0  0  0  0  0  0  0  0
   -1.3726    0.5145   -1.3451 H   0  0  0  0  0  0  0  0  0  0  0  0
   -1.2698    1.5699    1.1336 H   0  0  0  0  0  0  0  0  0  0  0  0
    0.2260    1.9609    0.1141 H   0  0  0  0  0  0  0  0  0  0  0  0
    0.8934   -1.6925    1.0143 H   0  0  0  0  0  0  0  0  0  0  0  0
    0.5913   -1.2132   -1.4991 H   0  0  0  0  0  0  0  0  0  0  0  0
    2.3557    0.4786   -0.4915 H   0  0  0  0  0  0  0  0  0  0  0  0
  1  2  2  0
  2  3  1  0
  3  4  1  0
  4  5  1  0
  5  6  1  0
  6  7  1  0
  7  8  1  0
  6  2  1  0
  7  3  1  0
  3  9  1  0
  4 10  1  0
  4 11  1  0
  6 12  1  0
  7 13  1  0
  8 14  1  0
M  END
