
     RDKit          3D

 17 19  0  0  0  0  0  0  0  0999 V2000
   -1.6622    1.9657   -1.3345 O   0  0  0  0  0  0  0  0  0  0  0  0
   -1.0723    1.1503   -0.6735 C   0  0  0  0  0  0  0  0  0  0  0  0
   -1.6724   -0.0269   -0.0134 C   0  0  0  0  0  0  0  0  0  0  0  0
   -0.5737   -0.6491    0.8305 C   0  0  0  0  0  0  0  0  0  0  0  0
    0.3662   -1.4189   -0.0751 C   0  0  0  0  0  0  0  0  0  0  0  0
    1.1279   -0.1137   -0.2669 C   0  0  0  0  0  0  0  0  0  0  0  0
    2.4902   -0.1023   -0.2718 O   0  0  0  0  0  0  0  0  0  0  0  0
    0.3727    1.1567   -0.3848 C   0  0  0  0  0  0  0  0  0  0  0  0
    0.4432    0.4363    0.9026 C   0  0  0  0  0  0  0  0  0  0  0  0
   -2.5823    0.1853    0.5560 H   0  0  0  0  0  0  0  0  0  0  0  0
   -1.9528   -0.7983   -0.7793 H   0  0  0  0  0  0  0  0  0  0  0  0
   -0.8857   -1.1400    1.7461 H   0  0  0  0  0  0  0  0  0  0  0  0
   -0.1191   -1.7818   -1.0048 H   0  0  0  0  0  0  0  0  0  0  0  0
    0.9420   -2.2191    0.4339 H   0  0  0  0  0  0  0  0  0  0  0  0
    2.9066    0.4998   -0.9296 H   0  0  0  0  0  0  0  0  0  0  0  0
    0.9784    2.0568   -0.5418 H   0  0  0  0  0  0  0  0  0  0  0  0
    0.8934    0.7995    1.8065 H   0  0  0  0  0  0  0  0  0  0  0  0
  1  2  2  0
  2  3  1  0
  3  4  1  0
  4  5  1  0
  5  6  1  0
  6  7  1  0
  6  8  1  0
  8  9  1  0
  8  2  1  0
  9  4  1  0
  9  6  1  0
  3 10  1  0
  3 11  1  0
  4 12  1  0
  5 13  1  0
  5 14  1  0
  7 15  1  0
  8 16  1  0
  9 17  1  0
M  END
