
     RDKit          3D

 13 13  0  0  0  0  0  0  0  0999 V2000
    1.0102    2.3842   -0.2196 O   0  0  0  0  0  0  0  0  0  0  0  0
    0.7809    1.1587   -0.1010 C   0  0  0  0  0  0  0  0  0  0  0  0
    1.7424    0.1862   -0.0601 C   0  0  0  0  0  0  0  0  0  0  0  0
    1.4209   -1.1549    0.0729 C   0  0  0  0  0  0  0  0  0  0  0  0
    0.1692   -1.4604    0.1582 O   0  0  0  0  0  0  0  0  0  0  0  0
   -0.8235   -0.6078    0.1294 C   0  0  0  0  0  0  0  0  0  0  0  0
   -2.1579   -1.0122    0.2272 O   0  0  0  0  0  0  0  0  0  0  0  0
   -0.5458    0.7296   -0.0013 C   0  0  0  0  0  0  0  0  0  0  0  0
   -1.5726    1.6524   -0.0347 O   0  0  0  0  0  0  0  0  0  0  0  0
    2.7743    0.5236   -0.1380 H   0  0  0  0  0  0  0  0  0  0  0  0
    2.2423   -1.8618    0.0969 H   0  0  0  0  0  0  0  0  0  0  0  0
   -2.5219   -1.8513   -0.1691 H   0  0  0  0  0  0  0  0  0  0  0  0
   -2.5185    1.3136    0.0392 H   0  0  0  0  0  0  0  0  0  0  0  0
  1  2  2  0
  2  3  1  0
  3  4  2  0
  4  5  1  0
  5  6  1  0
  6  7  1  0
  6  8  2  0
  8  9  1  0
  8  2  1  0
  3 10  1  0
  4 11  1  0
  7 12  1  0
  9 13  1  0
M  END
