
     RDKit          3D

 19 20  0  0  0  0  0  0  0  0999 V2000
   -3.0198    1.3179   -0.6491 O   0  0  0  0  0  0  0  0  0  0  0  0
   -2.0100    0.8612   -0.1747 C   0  0  0  0  0  0  0  0  0  0  0  0
   -0.6362    1.3591    0.0591 C   0  0  0  0  0  0  0  0  0  0  0  0
   -0.1924   -0.0794    0.0562 C   0  0  0  0  0  0  0  0  0  0  0  0
    0.8946   -0.4564    0.9846 C   0  0  0  0  0  0  0  0  0  0  0  0
    2.1037   -0.3699    0.0431 C   0  0  0  0  0  0  0  0  0  0  0  0
    1.6144   -0.9638   -1.0953 O   0  0  0  0  0  0  0  0  0  0  0  0
    0.3037   -0.5598   -1.2715 C   0  0  0  0  0  0  0  0  0  0  0  0
   -1.5949   -0.4277    0.4253 C   0  0  0  0  0  0  0  0  0  0  0  0
   -0.1798    1.9483   -0.7301 H   0  0  0  0  0  0  0  0  0  0  0  0
   -0.5840    1.8771    1.0325 H   0  0  0  0  0  0  0  0  0  0  0  0
    1.0704    0.2209    1.8242 H   0  0  0  0  0  0  0  0  0  0  0  0
    0.7994   -1.5220    1.3169 H   0  0  0  0  0  0  0  0  0  0  0  0
    2.9653   -0.9221    0.4364 H   0  0  0  0  0  0  0  0  0  0  0  0
    2.2986    0.7221   -0.0731 H   0  0  0  0  0  0  0  0  0  0  0  0
    0.1871    0.2130   -2.0594 H   0  0  0  0  0  0  0  0  0  0  0  0
   -0.2679   -1.4459   -1.6133 H   0  0  0  0  0  0  0  0  0  0  0  0
   -2.0135   -1.3332   -0.0433 H   0  0  0  0  0  0  0  0  0  0  0  0
   -1.7388   -0.4394    1.5316 H   0  0  0  0  0  0  0  0  0  0  0  0
  1  2  2  0
  2  3  1  0
  3  4  1  0
  4  5  1  0
  5  6  1  0
  6  7  1  0
  7  8  1  0
  4  9  1  0
  9  2  1  0
  8  4  1  0
  3 10  1  0
  3 11  1  0
  5 12  1  0
  5 13  1  0
  6 14  1  0
  6 15  1  0
  8 16  1  0
  8 17  1  0
  9 18  1  0
  9 19  1  0
M  END
