
     RDKit          3D

 17 19  0  0  0  0  0  0  0  0999 V2000
    0.2492    3.0298   -0.2288 O   0  0  0  0  0  0  0  0  0  0  0  0
    0.4000    1.8030   -0.2478 C   0  0  0  0  0  0  0  0  0  0  0  0
    1.0876    1.0615   -1.1754 O   0  0  0  0  0  0  0  0  0  0  0  0
    1.4717   -0.1910   -0.6377 C   0  0  0  0  0  0  0  0  0  0  0  0
    0.5193   -1.2350   -0.2985 C   0  0  0  0  0  0  0  0  0  0  0  0
   -0.9573   -1.1058   -0.4068 C   0  0  0  0  0  0  0  0  0  0  0  0
   -1.3702    0.2295    0.1361 C   0  0  0  0  0  0  0  0  0  0  0  0
   -0.1283    0.8388    0.7304 C   0  0  0  0  0  0  0  0  0  0  0  0
    0.9039   -0.2405    0.7193 C   0  0  0  0  0  0  0  0  0  0  0  0
    2.5257   -0.4756   -0.7737 H   0  0  0  0  0  0  0  0  0  0  0  0
    0.8922   -2.2749   -0.2507 H   0  0  0  0  0  0  0  0  0  0  0  0
   -1.3513   -1.2763   -1.4296 H   0  0  0  0  0  0  0  0  0  0  0  0
   -1.4222   -1.8845    0.2473 H   0  0  0  0  0  0  0  0  0  0  0  0
   -2.1234    0.1446    0.9356 H   0  0  0  0  0  0  0  0  0  0  0  0
   -1.8233    0.8624   -0.6514 H   0  0  0  0  0  0  0  0  0  0  0  0
   -0.3049    1.2813    1.7272 H   0  0  0  0  0  0  0  0  0  0  0  0
    1.4313   -0.5670    1.6044 H   0  0  0  0  0  0  0  0  0  0  0  0
  1  2  2  0
  2  3  1  0
  3  4  1  0
  4  5  1  0
  5  6  1  0
  6  7  1  0
  7  8  1  0
  8  9  1  0
  8  2  1  0
  9  4  1  0
  9  5  1  0
  4 10  1  0
  5 11  1  0
  6 12  1  0
  6 13  1  0
  7 14  1  0
  7 15  1  0
  8 16  1  0
  9 17  1  0
M  END
