
     RDKit          3D

 15 18  0  0  0  0  0  0  0  0999 V2000
    2.1763   -1.7045   -0.1743 O   0  0  0  0  0  0  0  0  0  0  0  0
    1.3405   -0.8761   -0.1530 C   0  0  0  0  0  0  0  0  0  0  0  0
    0.3671   -0.2490   -1.0644 C   0  0  0  0  0  0  0  0  0  0  0  0
    0.6792    1.0443   -0.2985 C   0  0  0  0  0  0  0  0  0  0  0  0
   -0.5087    1.6796   -0.0944 O   0  0  0  0  0  0  0  0  0  0  0  0
   -1.4139    0.6821    0.2249 C   0  0  0  0  0  0  0  0  0  0  0  0
   -1.0155   -0.4985   -0.5204 C   0  0  0  0  0  0  0  0  0  0  0  0
   -0.6862   -0.2889    1.0029 C   0  0  0  0  0  0  0  0  0  0  0  0
    0.7732    0.0441    0.8534 C   0  0  0  0  0  0  0  0  0  0  0  0
    0.5314   -0.2468   -2.1125 H   0  0  0  0  0  0  0  0  0  0  0  0
    1.5630    1.5697   -0.5710 H   0  0  0  0  0  0  0  0  0  0  0  0
   -2.4866    0.9130    0.3195 H   0  0  0  0  0  0  0  0  0  0  0  0
   -1.6091   -1.3489   -0.7867 H   0  0  0  0  0  0  0  0  0  0  0  0
   -1.0547   -1.0416    1.6699 H   0  0  0  0  0  0  0  0  0  0  0  0
    1.3440    0.3215    1.7047 H   0  0  0  0  0  0  0  0  0  0  0  0
  1  2  2  0
  2  3  1  0
  3  4  1  0
  4  5  1  0
  5  6  1  0
  6  7  1  0
  7  8  1  0
  8  9  1  0
  9  2  1  0
  7  3  1  0
  9  4  1  0
  8  6  1  0
  3 10  1  0
  4 11  1  0
  6 12  1  0
  7 13  1  0
  8 14  1  0
  9 15  1  0
M  END
