
     RDKit          3D

 15 17  0  0  0  0  0  0  0  0999 V2000
    1.2504    2.0095    1.2283 O   0  0  0  0  0  0  0  0  0  0  0  0
    1.1645    1.0700    0.3910 C   0  0  0  0  0  0  0  0  0  0  0  0
    2.0417    0.0206    0.1463 O   0  0  0  0  0  0  0  0  0  0  0  0
    1.3179   -1.1300   -0.2094 C   0  0  0  0  0  0  0  0  0  0  0  0
   -0.0024   -0.6075   -0.7117 C   0  0  0  0  0  0  0  0  0  0  0  0
   -1.1466   -0.5868    0.2440 C   0  0  0  0  0  0  0  0  0  0  0  0
   -1.3761    0.8901    0.0432 C   0  0  0  0  0  0  0  0  0  0  0  0
    0.0490    0.9128   -0.5307 C   0  0  0  0  0  0  0  0  0  0  0  0
    0.1311    0.2961   -1.7362 O   0  0  0  0  0  0  0  0  0  0  0  0
    1.1294   -1.8068    0.6293 H   0  0  0  0  0  0  0  0  0  0  0  0
    1.8262   -1.6744   -1.0531 H   0  0  0  0  0  0  0  0  0  0  0  0
   -0.7852   -0.7243    1.3057 H   0  0  0  0  0  0  0  0  0  0  0  0
   -1.9853   -1.2497    0.0475 H   0  0  0  0  0  0  0  0  0  0  0  0
   -2.1342    1.0787   -0.7305 H   0  0  0  0  0  0  0  0  0  0  0  0
   -1.4803    1.5016    0.9363 H   0  0  0  0  0  0  0  0  0  0  0  0
  1  2  2  0
  2  3  1  0
  3  4  1  0
  4  5  1  0
  5  6  1  0
  6  7  1  0
  7  8  1  0
  8  9  1  0
  8  2  1  0
  8  5  1  0
  9  5  1  0
  4 10  1  0
  4 11  1  0
  6 12  1  0
  6 13  1  0
  7 14  1  0
  7 15  1  0
M  END
