
     RDKit          3D

 17 18  0  0  0  0  0  0  0  0999 V2000
    2.5601   -0.1324    1.8284 O   0  0  0  0  0  0  0  0  0  0  0  0
    2.3350   -0.1861    0.5773 C   0  0  0  0  0  0  0  0  0  0  0  0
    2.9568   -0.7149   -0.5290 O   0  0  0  0  0  0  0  0  0  0  0  0
    2.0628   -0.0149   -1.3883 C   0  0  0  0  0  0  0  0  0  0  0  0
    1.1978    0.3644   -0.2086 C   0  0  0  0  0  0  0  0  0  0  0  0
    0.0678   -0.3915   -0.0262 O   0  0  0  0  0  0  0  0  0  0  0  0
   -1.0493    0.3255    0.3344 C   0  0  0  0  0  0  0  0  0  0  0  0
   -2.0961   -0.3787    1.2084 C   0  0  0  0  0  0  0  0  0  0  0  0
   -2.3507   -0.2316   -0.2607 C   0  0  0  0  0  0  0  0  0  0  0  0
    2.6025    0.8527   -1.8533 H   0  0  0  0  0  0  0  0  0  0  0  0
    1.5346   -0.6694   -2.1028 H   0  0  0  0  0  0  0  0  0  0  0  0
    1.0964    1.4624   -0.0486 H   0  0  0  0  0  0  0  0  0  0  0  0
   -0.9886    1.4340    0.4560 H   0  0  0  0  0  0  0  0  0  0  0  0
   -1.8097   -1.3634    1.6350 H   0  0  0  0  0  0  0  0  0  0  0  0
   -2.7121    0.2396    1.8833 H   0  0  0  0  0  0  0  0  0  0  0  0
   -3.1159    0.5073   -0.5777 H   0  0  0  0  0  0  0  0  0  0  0  0
   -2.2914   -1.1030   -0.9277 H   0  0  0  0  0  0  0  0  0  0  0  0
  1  2  2  0
  2  3  1  0
  3  4  1  0
  4  5  1  0
  5  6  1  0
  6  7  1  0
  7  8  1  0
  8  9  1  0
  5  2  1  0
  9  7  1  0
  4 10  1  0
  4 11  1  0
  5 12  1  0
  7 13  1  0
  8 14  1  0
  8 15  1  0
  9 16  1  0
  9 17  1  0
M  END
