
     RDKit          3D

 19 20  0  0  0  0  0  0  0  0999 V2000
    2.5354    1.7292    0.2994 O   0  0  0  0  0  0  0  0  0  0  0  0
    1.7608    0.8609   -0.0008 C   0  0  0  0  0  0  0  0  0  0  0  0
    2.0228   -0.5458    0.3434 C   0  0  0  0  0  0  0  0  0  0  0  0
    0.7671   -1.3267    0.4705 C   0  0  0  0  0  0  0  0  0  0  0  0
   -0.4303   -0.7877    0.3718 C   0  0  0  0  0  0  0  0  0  0  0  0
   -1.9083   -0.8903    0.3813 C   0  0  0  0  0  0  0  0  0  0  0  0
   -1.8902    0.3271   -0.5608 C   0  0  0  0  0  0  0  0  0  0  0  0
   -0.6228    0.6889    0.1178 C   0  0  0  0  0  0  0  0  0  0  0  0
    0.5233    1.1935   -0.7263 C   0  0  0  0  0  0  0  0  0  0  0  0
    2.5979   -0.6528    1.2919 H   0  0  0  0  0  0  0  0  0  0  0  0
    2.6821   -0.9573   -0.4670 H   0  0  0  0  0  0  0  0  0  0  0  0
    0.9116   -2.4072    0.6564 H   0  0  0  0  0  0  0  0  0  0  0  0
   -2.3244   -0.6272    1.3883 H   0  0  0  0  0  0  0  0  0  0  0  0
   -2.3472   -1.7682   -0.0999 H   0  0  0  0  0  0  0  0  0  0  0  0
   -2.7658    0.9626   -0.4029 H   0  0  0  0  0  0  0  0  0  0  0  0
   -1.7560   -0.0365   -1.6006 H   0  0  0  0  0  0  0  0  0  0  0  0
   -0.7232    1.2264    1.0548 H   0  0  0  0  0  0  0  0  0  0  0  0
    0.5421    0.7187   -1.7263 H   0  0  0  0  0  0  0  0  0  0  0  0
    0.4250    2.2924   -0.7910 H   0  0  0  0  0  0  0  0  0  0  0  0
  1  2  2  0
  2  3  1  0
  3  4  1  0
  4  5  2  0
  5  6  1  0
  6  7  1  0
  7  8  1  0
  8  9  1  0
  9  2  1  0
  8  5  1  0
  3 10  1  0
  3 11  1  0
  4 12  1  0
  6 13  1  0
  6 14  1  0
  7 15  1  0
  7 16  1  0
  8 17  1  0
  9 18  1  0
  9 19  1  0
M  END
