
     RDKit          3D

 15 16  0  0  0  0  0  0  0  0999 V2000
    2.4664   -0.7440    1.7749 O   0  0  0  0  0  0  0  0  0  0  0  0
    1.7544   -0.5995    0.7386 C   0  0  0  0  0  0  0  0  0  0  0  0
    2.1492   -0.7346   -0.6101 O   0  0  0  0  0  0  0  0  0  0  0  0
    1.2371    0.3027   -0.8994 C   0  0  0  0  0  0  0  0  0  0  0  0
    0.4352   -0.2906    0.2579 C   0  0  0  0  0  0  0  0  0  0  0  0
   -0.3871    0.7046    0.9510 C   0  0  0  0  0  0  0  0  0  0  0  0
   -1.6255    0.5344    0.4789 C   0  0  0  0  0  0  0  0  0  0  0  0
   -1.5532   -0.5711   -0.5066 C   0  0  0  0  0  0  0  0  0  0  0  0
   -0.4211   -1.3030   -0.0798 O   0  0  0  0  0  0  0  0  0  0  0  0
    0.7267    0.2503   -1.8711 H   0  0  0  0  0  0  0  0  0  0  0  0
    1.6438    1.2776   -0.6274 H   0  0  0  0  0  0  0  0  0  0  0  0
   -0.1624    1.4578    1.6926 H   0  0  0  0  0  0  0  0  0  0  0  0
   -2.5391    1.0626    0.7245 H   0  0  0  0  0  0  0  0  0  0  0  0
   -1.2696   -0.1470   -1.4901 H   0  0  0  0  0  0  0  0  0  0  0  0
   -2.4549   -1.2003   -0.5340 H   0  0  0  0  0  0  0  0  0  0  0  0
  1  2  2  0
  2  3  1  0
  3  4  1  0
  4  5  1  0
  5  6  1  0
  6  7  2  0
  7  8  1  0
  8  9  1  0
  5  2  1  0
  9  5  1  0
  4 10  1  0
  4 11  1  0
  6 12  1  0
  7 13  1  0
  8 14  1  0
  8 15  1  0
M  END
