
     RDKit          3D

 19 19  0  0  0  0  0  0  0  0999 V2000
   -0.6378    2.2809   -1.3445 O   0  0  0  0  0  0  0  0  0  0  0  0
   -0.3531    1.4749   -0.4996 C   0  0  0  0  0  0  0  0  0  0  0  0
   -1.4412    0.8380    0.2964 C   0  0  0  0  0  0  0  0  0  0  0  0
   -1.2008   -0.6706    0.1790 C   0  0  0  0  0  0  0  0  0  0  0  0
   -1.1529   -0.9578   -1.1689 O   0  0  0  0  0  0  0  0  0  0  0  0
    0.1349   -0.9119    0.8741 C   0  0  0  0  0  0  0  0  0  0  0  0
    1.2771   -0.3155    0.0920 C   0  0  0  0  0  0  0  0  0  0  0  0
    1.5813   -1.1058   -1.0062 O   0  0  0  0  0  0  0  0  0  0  0  0
    1.0421    1.1174   -0.2487 C   0  0  0  0  0  0  0  0  0  0  0  0
   -1.2435    1.1439    1.3653 H   0  0  0  0  0  0  0  0  0  0  0  0
   -2.4334    1.1280   -0.0434 H   0  0  0  0  0  0  0  0  0  0  0  0
   -1.9514   -1.2449    0.7325 H   0  0  0  0  0  0  0  0  0  0  0  0
   -1.6945   -1.7410   -1.4282 H   0  0  0  0  0  0  0  0  0  0  0  0
    0.0786   -0.3572    1.8379 H   0  0  0  0  0  0  0  0  0  0  0  0
    0.2803   -1.9719    1.0597 H   0  0  0  0  0  0  0  0  0  0  0  0
    2.1728   -0.3565    0.7637 H   0  0  0  0  0  0  0  0  0  0  0  0
    2.4814   -1.5223   -0.9526 H   0  0  0  0  0  0  0  0  0  0  0  0
    1.3984    1.7552    0.6109 H   0  0  0  0  0  0  0  0  0  0  0  0
    1.6616    1.4172   -1.1194 H   0  0  0  0  0  0  0  0  0  0  0  0
  1  2  2  0
  2  3  1  0
  3  4  1  0
  4  5  1  0
  4  6  1  0
  6  7  1  0
  7  8  1  0
  7  9  1  0
  9  2  1  0
  3 10  1  0
  3 11  1  0
  4 12  1  0
  5 13  1  0
  6 14  1  0
  6 15  1  0
  7 16  1  0
  8 17  1  0
  9 18  1  0
  9 19  1  0
M  END
