
     RDKit          3D

 13 15  0  0  0  0  0  0  0  0999 V2000
    2.8184    0.1885   -0.3434 O   0  0  0  0  0  0  0  0  0  0  0  0
    1.6015   -0.0501   -0.1566 C   0  0  0  0  0  0  0  0  0  0  0  0
    0.9224   -1.0945   -0.7660 O   0  0  0  0  0  0  0  0  0  0  0  0
   -0.3672   -1.2543   -0.2103 C   0  0  0  0  0  0  0  0  0  0  0  0
   -1.1876    0.0214   -0.1228 C   0  0  0  0  0  0  0  0  0  0  0  0
   -0.4863    1.3063   -0.0540 C   0  0  0  0  0  0  0  0  0  0  0  0
   -0.7172    2.4242   -0.4527 O   0  0  0  0  0  0  0  0  0  0  0  0
    0.6116    0.6590    0.7028 C   0  0  0  0  0  0  0  0  0  0  0  0
   -0.3474   -0.4549    1.0022 C   0  0  0  0  0  0  0  0  0  0  0  0
   -0.8830   -2.2041   -0.2227 H   0  0  0  0  0  0  0  0  0  0  0  0
   -2.2843   -0.0446   -0.0973 H   0  0  0  0  0  0  0  0  0  0  0  0
    1.0179    1.2076    1.5536 H   0  0  0  0  0  0  0  0  0  0  0  0
   -0.6987   -0.7046    1.9795 H   0  0  0  0  0  0  0  0  0  0  0  0
  1  2  2  0
  2  3  1  0
  3  4  1  0
  4  5  1  0
  5  6  1  0
  6  7  2  0
  6  8  1  0
  8  9  1  0
  8  2  1  0
  9  4  1  0
  9  5  1  0
  4 10  1  0
  5 11  1  0
  8 12  1  0
  9 13  1  0
M  END
