
     RDKit          3D

 17 19  0  0  0  0  0  0  0  0999 V2000
    2.2076   -0.9028   -1.8517 O   0  0  0  0  0  0  0  0  0  0  0  0
    1.4338   -0.7896   -0.8441 C   0  0  0  0  0  0  0  0  0  0  0  0
    1.7127    0.2117    0.2013 C   0  0  0  0  0  0  0  0  0  0  0  0
    0.4702    0.7850    0.8265 C   0  0  0  0  0  0  0  0  0  0  0  0
   -0.7464    1.0745    0.0816 C   0  0  0  0  0  0  0  0  0  0  0  0
   -1.3804    0.1400   -0.8864 C   0  0  0  0  0  0  0  0  0  0  0  0
   -0.8591   -1.0800   -0.1156 C   0  0  0  0  0  0  0  0  0  0  0  0
    0.3116   -1.5882   -0.6840 O   0  0  0  0  0  0  0  0  0  0  0  0
   -0.6257   -0.1588    1.0395 C   0  0  0  0  0  0  0  0  0  0  0  0
    2.3883    1.0173   -0.1138 H   0  0  0  0  0  0  0  0  0  0  0  0
    2.2618   -0.3379    1.0215 H   0  0  0  0  0  0  0  0  0  0  0  0
    0.6992    1.4664    1.6827 H   0  0  0  0  0  0  0  0  0  0  0  0
   -1.4148    1.8912    0.4459 H   0  0  0  0  0  0  0  0  0  0  0  0
   -1.0213    0.1361   -1.9122 H   0  0  0  0  0  0  0  0  0  0  0  0
   -2.5056    0.1205   -0.8482 H   0  0  0  0  0  0  0  0  0  0  0  0
   -1.6248   -1.8564    0.0551 H   0  0  0  0  0  0  0  0  0  0  0  0
   -1.3072   -0.1290    1.9020 H   0  0  0  0  0  0  0  0  0  0  0  0
  1  2  2  0
  2  3  1  0
  3  4  1  0
  4  5  1  0
  5  6  1  0
  6  7  1  0
  7  8  1  0
  7  9  1  0
  8  2  1  0
  9  4  1  0
  9  5  1  0
  3 10  1  0
  3 11  1  0
  4 12  1  0
  5 13  1  0
  6 14  1  0
  6 15  1  0
  7 16  1  0
  9 17  1  0
M  END
