
     RDKit          3D

 16 16  0  0  0  0  0  0  0  0999 V2000
    0.0473    2.6710   -0.0496 O   0  0  0  0  0  0  0  0  0  0  0  0
   -0.0947    1.4323    0.0293 C   0  0  0  0  0  0  0  0  0  0  0  0
   -1.4509    0.8912    0.2248 C   0  0  0  0  0  0  0  0  0  0  0  0
   -1.6188   -0.4008    0.4086 C   0  0  0  0  0  0  0  0  0  0  0  0
   -0.4573   -1.3203    0.4214 C   0  0  0  0  0  0  0  0  0  0  0  0
    0.5089   -0.8108   -0.6454 C   0  0  0  0  0  0  0  0  0  0  0  0
    1.0468    0.4854   -0.0659 C   0  0  0  0  0  0  0  0  0  0  0  0
    2.0665    1.0192   -0.8378 O   0  0  0  0  0  0  0  0  0  0  0  0
   -2.2939    1.5888    0.2116 H   0  0  0  0  0  0  0  0  0  0  0  0
   -2.6034   -0.8199    0.5540 H   0  0  0  0  0  0  0  0  0  0  0  0
   -0.7223   -2.3653    0.2852 H   0  0  0  0  0  0  0  0  0  0  0  0
    0.0157   -1.2082    1.4322 H   0  0  0  0  0  0  0  0  0  0  0  0
    1.3006   -1.5338   -0.8703 H   0  0  0  0  0  0  0  0  0  0  0  0
   -0.1274   -0.5744   -1.5397 H   0  0  0  0  0  0  0  0  0  0  0  0
    1.4460    0.2150    0.9491 H   0  0  0  0  0  0  0  0  0  0  0  0
    2.9368    0.7306   -0.5075 H   0  0  0  0  0  0  0  0  0  0  0  0
  1  2  2  0
  2  3  1  0
  3  4  2  0
  4  5  1  0
  5  6  1  0
  6  7  1  0
  7  8  1  0
  7  2  1  0
  3  9  1  0
  4 10  1  0
  5 11  1  0
  5 12  1  0
  6 13  1  0
  6 14  1  0
  7 15  1  0
  8 16  1  0
M  END
