
     RDKit          3D

 17 18  0  0  0  0  0  0  0  0999 V2000
    1.4986    1.4220    1.6636 O   0  0  0  0  0  0  0  0  0  0  0  0
    1.2613    0.5388    0.8790 C   0  0  0  0  0  0  0  0  0  0  0  0
    2.0439   -0.3682    0.0095 C   0  0  0  0  0  0  0  0  0  0  0  0
    0.7716   -0.5379   -0.8360 C   0  0  0  0  0  0  0  0  0  0  0  0
    0.0513   -0.0894    0.3855 C   0  0  0  0  0  0  0  0  0  0  0  0
   -0.5384   -1.0728    1.1478 O   0  0  0  0  0  0  0  0  0  0  0  0
   -1.7695   -0.6847    0.5938 C   0  0  0  0  0  0  0  0  0  0  0  0
   -1.1911    0.6740    0.2759 C   0  0  0  0  0  0  0  0  0  0  0  0
   -1.5409    1.2055   -0.9479 O   0  0  0  0  0  0  0  0  0  0  0  0
    2.8883    0.0688   -0.5242 H   0  0  0  0  0  0  0  0  0  0  0  0
    2.2732   -1.3068    0.5896 H   0  0  0  0  0  0  0  0  0  0  0  0
    0.6873   -1.5930   -1.1286 H   0  0  0  0  0  0  0  0  0  0  0  0
    0.8168    0.1773   -1.6756 H   0  0  0  0  0  0  0  0  0  0  0  0
   -2.0438   -1.2916   -0.2874 H   0  0  0  0  0  0  0  0  0  0  0  0
   -2.5350   -0.6771    1.3909 H   0  0  0  0  0  0  0  0  0  0  0  0
   -1.3544    1.3453    1.1584 H   0  0  0  0  0  0  0  0  0  0  0  0
   -1.3194    2.1899   -0.8863 H   0  0  0  0  0  0  0  0  0  0  0  0
  1  2  2  0
  2  3  1  0
  3  4  1  0
  4  5  1  0
  5  6  1  0
  6  7  1  0
  7  8  1  0
  8  9  1  0
  5  2  1  0
  8  5  1  0
  3 10  1  0
  3 11  1  0
  4 12  1  0
  4 13  1  0
  7 14  1  0
  7 15  1  0
  8 16  1  0
  9 17  1  0
M  END
