
     RDKit          3D

 17 18  0  0  0  0  0  0  0  0999 V2000
    0.8613   -2.2176   -1.0509 O   0  0  0  0  0  0  0  0  0  0  0  0
    0.4724   -1.1803   -0.6008 C   0  0  0  0  0  0  0  0  0  0  0  0
    1.1236    0.1771   -0.7992 C   0  0  0  0  0  0  0  0  0  0  0  0
    2.4760   -0.0023   -0.5440 O   0  0  0  0  0  0  0  0  0  0  0  0
    0.4861    0.9125    0.3141 C   0  0  0  0  0  0  0  0  0  0  0  0
   -0.6500    1.7209    0.4494 C   0  0  0  0  0  0  0  0  0  0  0  0
   -0.9801    0.4793   -0.1053 C   0  0  0  0  0  0  0  0  0  0  0  0
   -0.7483   -0.9358    0.2717 C   0  0  0  0  0  0  0  0  0  0  0  0
   -1.7673   -1.8026   -0.0251 O   0  0  0  0  0  0  0  0  0  0  0  0
    0.9172    0.5697   -1.7978 H   0  0  0  0  0  0  0  0  0  0  0  0
    2.5433   -0.2587    0.4191 H   0  0  0  0  0  0  0  0  0  0  0  0
    0.8593    0.4586    1.2870 H   0  0  0  0  0  0  0  0  0  0  0  0
   -1.0468    1.9791    1.4674 H   0  0  0  0  0  0  0  0  0  0  0  0
   -0.7180    2.6514   -0.1880 H   0  0  0  0  0  0  0  0  0  0  0  0
   -1.1823    0.4919   -1.2246 H   0  0  0  0  0  0  0  0  0  0  0  0
   -0.3545   -1.0668    1.3209 H   0  0  0  0  0  0  0  0  0  0  0  0
   -2.2919   -1.9765    0.8062 H   0  0  0  0  0  0  0  0  0  0  0  0
  1  2  2  0
  2  3  1  0
  3  4  1  0
  3  5  1  0
  5  6  1  0
  6  7  1  0
  7  8  1  0
  8  9  1  0
  8  2  1  0
  7  5  1  0
  3 10  1  0
  4 11  1  0
  5 12  1  0
  6 13  1  0
  6 14  1  0
  7 15  1  0
  8 16  1  0
  9 17  1  0
M  END
