
     RDKit          3D

  9  9  0  0  0  0  0  0  0  0999 V2000
    0.1665   -0.4046    2.0303 O   0  0  0  0  0  0  0  0  0  0  0  0
    0.0378   -0.1538    0.8537 C   0  0  0  0  0  0  0  0  0  0  0  0
    0.9423   -0.0305   -0.2993 C   0  0  0  0  0  0  0  0  0  0  0  0
    0.0350    0.9145   -0.8341 O   0  0  0  0  0  0  0  0  0  0  0  0
   -0.9658    0.1695   -0.1656 C   0  0  0  0  0  0  0  0  0  0  0  0
    1.9100    0.3756   -0.0220 H   0  0  0  0  0  0  0  0  0  0  0  0
    0.9434   -0.9069   -0.9882 H   0  0  0  0  0  0  0  0  0  0  0  0
   -1.8223    0.7975    0.1507 H   0  0  0  0  0  0  0  0  0  0  0  0
   -1.2469   -0.7612   -0.7255 H   0  0  0  0  0  0  0  0  0  0  0  0
  1  2  2  0
  2  3  1  0
  3  4  1  0
  4  5  1  0
  5  2  1  0
  3  6  1  0
  3  7  1  0
  5  8  1  0
  5  9  1  0
M  END
