
     RDKit          3D

 15 17  0  0  0  0  0  0  0  0999 V2000
    2.3570   -1.7295   -0.9175 O   0  0  0  0  0  0  0  0  0  0  0  0
    1.3802   -1.0573   -0.5192 C   0  0  0  0  0  0  0  0  0  0  0  0
    0.1439   -1.6197   -0.3954 O   0  0  0  0  0  0  0  0  0  0  0  0
   -0.9338   -1.0082    0.2463 C   0  0  0  0  0  0  0  0  0  0  0  0
   -1.6670    0.0979   -0.4131 C   0  0  0  0  0  0  0  0  0  0  0  0
   -0.7205    0.3246    0.7830 C   0  0  0  0  0  0  0  0  0  0  0  0
    0.5429    1.0123    0.4609 C   0  0  0  0  0  0  0  0  0  0  0  0
    0.7891    1.3062   -0.9553 O   0  0  0  0  0  0  0  0  0  0  0  0
    1.5787    0.3578   -0.1825 C   0  0  0  0  0  0  0  0  0  0  0  0
   -1.5997   -1.7112    0.8282 H   0  0  0  0  0  0  0  0  0  0  0  0
   -2.7092    0.3263   -0.1936 H   0  0  0  0  0  0  0  0  0  0  0  0
   -1.3065    0.4408   -1.4113 H   0  0  0  0  0  0  0  0  0  0  0  0
   -1.1949    0.5575    1.7645 H   0  0  0  0  0  0  0  0  0  0  0  0
    0.7099    1.9706    1.0222 H   0  0  0  0  0  0  0  0  0  0  0  0
    2.6299    0.7320   -0.1172 H   0  0  0  0  0  0  0  0  0  0  0  0
  1  2  2  0
  2  3  1  0
  3  4  1  0
  4  5  1  0
  5  6  1  0
  6  7  1  0
  7  8  1  0
  8  9  1  0
  9  2  1  0
  6  4  1  0
  9  7  1  0
  4 10  1  0
  5 11  1  0
  5 12  1  0
  6 13  1  0
  7 14  1  0
  9 15  1  0
M  END
