
     RDKit          3D

 14 15  0  0  0  0  0  0  0  0999 V2000
   -1.5291   -1.9645    0.6491 O   0  0  0  0  0  0  0  0  0  0  0  0
   -0.9408   -1.0118    0.2224 C   0  0  0  0  0  0  0  0  0  0  0  0
   -1.2355    0.4322    0.3997 C   0  0  0  0  0  0  0  0  0  0  0  0
   -0.1268    1.0344   -0.4348 C   0  0  0  0  0  0  0  0  0  0  0  0
    1.1536    0.8144    0.2876 C   0  0  0  0  0  0  0  0  0  0  0  0
    1.4465   -0.4725    0.1138 C   0  0  0  0  0  0  0  0  0  0  0  0
    0.2744   -1.0376   -0.6214 C   0  0  0  0  0  0  0  0  0  0  0  0
   -0.0014    0.0687   -1.4655 O   0  0  0  0  0  0  0  0  0  0  0  0
   -1.0652    0.7628    1.4505 H   0  0  0  0  0  0  0  0  0  0  0  0
   -2.2388    0.7072    0.0393 H   0  0  0  0  0  0  0  0  0  0  0  0
   -0.2995    2.0308   -0.7896 H   0  0  0  0  0  0  0  0  0  0  0  0
    1.7422    1.5392    0.8463 H   0  0  0  0  0  0  0  0  0  0  0  0
    2.3550   -0.9549    0.4532 H   0  0  0  0  0  0  0  0  0  0  0  0
    0.4652   -1.9483   -1.1507 H   0  0  0  0  0  0  0  0  0  0  0  0
  1  2  2  0
  2  3  1  0
  3  4  1  0
  4  5  1  0
  5  6  2  0
  6  7  1  0
  7  8  1  0
  7  2  1  0
  8  4  1  0
  3  9  1  0
  3 10  1  0
  4 11  1  0
  5 12  1  0
  6 13  1  0
  7 14  1  0
M  END
