
     RDKit          3D

 17 19  0  0  0  0  0  0  0  0999 V2000
    2.4932    0.8069    1.3453 O   0  0  0  0  0  0  0  0  0  0  0  0
    1.4669    0.4642    0.8425 C   0  0  0  0  0  0  0  0  0  0  0  0
    0.1989    1.2097    0.7717 C   0  0  0  0  0  0  0  0  0  0  0  0
   -0.5852    0.5503   -0.3498 C   0  0  0  0  0  0  0  0  0  0  0  0
   -1.2600    1.3959   -1.1843 O   0  0  0  0  0  0  0  0  0  0  0  0
   -1.3742   -0.6400    0.1728 C   0  0  0  0  0  0  0  0  0  0  0  0
   -0.1115   -1.4346    0.1249 C   0  0  0  0  0  0  0  0  0  0  0  0
    1.2288   -0.8250    0.1561 C   0  0  0  0  0  0  0  0  0  0  0  0
    0.3618   -0.4276   -0.9512 C   0  0  0  0  0  0  0  0  0  0  0  0
   -0.3578    1.0056    1.7285 H   0  0  0  0  0  0  0  0  0  0  0  0
    0.3035    2.2882    0.6477 H   0  0  0  0  0  0  0  0  0  0  0  0
   -0.6377    1.8494   -1.8209 H   0  0  0  0  0  0  0  0  0  0  0  0
   -1.8047   -0.5062    1.1824 H   0  0  0  0  0  0  0  0  0  0  0  0
   -2.1228   -0.9316   -0.6205 H   0  0  0  0  0  0  0  0  0  0  0  0
   -0.1968   -2.4747   -0.1628 H   0  0  0  0  0  0  0  0  0  0  0  0
    2.0792   -1.5116    0.0612 H   0  0  0  0  0  0  0  0  0  0  0  0
    0.3183   -0.8189   -1.9435 H   0  0  0  0  0  0  0  0  0  0  0  0
  1  2  2  0
  2  3  1  0
  3  4  1  0
  4  5  1  0
  4  6  1  0
  6  7  1  0
  7  8  1  0
  8  9  1  0
  8  2  1  0
  9  4  1  0
  9  7  1  0
  3 10  1  0
  3 11  1  0
  5 12  1  0
  6 13  1  0
  6 14  1  0
  7 15  1  0
  8 16  1  0
  9 17  1  0
M  END
