
     RDKit          3D

 16 16  0  0  0  0  0  0  0  0999 V2000
   -2.4545   -1.0519   -0.1725 O   0  0  0  0  0  0  0  0  0  0  0  0
   -1.3358   -0.6081   -0.3676 C   0  0  0  0  0  0  0  0  0  0  0  0
   -1.0021    0.8171   -0.6531 C   0  0  0  0  0  0  0  0  0  0  0  0
    0.2289    0.9983    0.2377 C   0  0  0  0  0  0  0  0  0  0  0  0
   -0.2771    1.3402    1.5047 O   0  0  0  0  0  0  0  0  0  0  0  0
    0.8988   -0.3413    0.3123 C   0  0  0  0  0  0  0  0  0  0  0  0
    2.1188   -0.3745   -0.3470 O   0  0  0  0  0  0  0  0  0  0  0  0
   -0.0285   -1.3202   -0.3792 C   0  0  0  0  0  0  0  0  0  0  0  0
   -0.6936    0.9440   -1.7207 H   0  0  0  0  0  0  0  0  0  0  0  0
   -1.8110    1.4983   -0.3763 H   0  0  0  0  0  0  0  0  0  0  0  0
    0.8590    1.8104   -0.1190 H   0  0  0  0  0  0  0  0  0  0  0  0
   -0.4664    0.4680    1.9635 H   0  0  0  0  0  0  0  0  0  0  0  0
    1.0177   -0.6895    1.3474 H   0  0  0  0  0  0  0  0  0  0  0  0
    2.7788    0.2609    0.0052 H   0  0  0  0  0  0  0  0  0  0  0  0
   -0.1306   -2.2535    0.1942 H   0  0  0  0  0  0  0  0  0  0  0  0
    0.2977   -1.4983   -1.4296 H   0  0  0  0  0  0  0  0  0  0  0  0
  1  2  2  0
  2  3  1  0
  3  4  1  0
  4  5  1  0
  4  6  1  0
  6  7  1  0
  6  8  1  0
  8  2  1  0
  3  9  1  0
  3 10  1  0
  4 11  1  0
  5 12  1  0
  6 13  1  0
  7 14  1  0
  8 15  1  0
  8 16  1  0
M  END
