
     RDKit          3D

 19 19  0  0  0  0  0  0  0  0999 V2000
   -1.7450    2.2195   -0.2071 O   0  0  0  0  0  0  0  0  0  0  0  0
   -0.9030    1.3717   -0.3145 C   0  0  0  0  0  0  0  0  0  0  0  0
   -1.4042    0.0117   -0.5482 C   0  0  0  0  0  0  0  0  0  0  0  0
   -0.9959   -0.8154    0.6660 C   0  0  0  0  0  0  0  0  0  0  0  0
    0.2716   -1.5819    0.3521 C   0  0  0  0  0  0  0  0  0  0  0  0
    1.3257   -0.7418   -0.2872 C   0  0  0  0  0  0  0  0  0  0  0  0
    1.3558    0.6462    0.1613 C   0  0  0  0  0  0  0  0  0  0  0  0
    2.2196    0.9240    0.9639 O   0  0  0  0  0  0  0  0  0  0  0  0
    0.4977    1.8000   -0.1997 C   0  0  0  0  0  0  0  0  0  0  0  0
   -2.5170   -0.0129   -0.5956 H   0  0  0  0  0  0  0  0  0  0  0  0
   -1.0010   -0.4311   -1.4899 H   0  0  0  0  0  0  0  0  0  0  0  0
   -0.8137   -0.1694    1.5569 H   0  0  0  0  0  0  0  0  0  0  0  0
   -1.7699   -1.5351    0.9416 H   0  0  0  0  0  0  0  0  0  0  0  0
   -0.0528   -2.4343   -0.3125 H   0  0  0  0  0  0  0  0  0  0  0  0
    0.5947   -2.0471    1.3147 H   0  0  0  0  0  0  0  0  0  0  0  0
    2.3143   -1.2512   -0.0881 H   0  0  0  0  0  0  0  0  0  0  0  0
    1.1996   -0.8380   -1.4058 H   0  0  0  0  0  0  0  0  0  0  0  0
    0.8805    2.3086   -1.1103 H   0  0  0  0  0  0  0  0  0  0  0  0
    0.5433    2.5768    0.6024 H   0  0  0  0  0  0  0  0  0  0  0  0
  1  2  2  0
  2  3  1  0
  3  4  1  0
  4  5  1  0
  5  6  1  0
  6  7  1  0
  7  8  2  0
  7  9  1  0
  9  2  1  0
  3 10  1  0
  3 11  1  0
  4 12  1  0
  4 13  1  0
  5 14  1  0
  5 15  1  0
  6 16  1  0
  6 17  1  0
  9 18  1  0
  9 19  1  0
M  END
