
     RDKit          3D

 15 15  0  0  0  0  0  0  0  0999 V2000
    2.0881    1.9554   -0.4185 O   0  0  0  0  0  0  0  0  0  0  0  0
    1.1110    1.1657   -0.3416 C   0  0  0  0  0  0  0  0  0  0  0  0
    1.3744   -0.1947    0.1623 C   0  0  0  0  0  0  0  0  0  0  0  0
    0.2324   -1.1294    0.0790 C   0  0  0  0  0  0  0  0  0  0  0  0
   -1.1239   -0.5768    0.0310 C   0  0  0  0  0  0  0  0  0  0  0  0
   -1.2580    0.9017   -0.0945 C   0  0  0  0  0  0  0  0  0  0  0  0
   -0.1621    1.5279   -0.7053 O   0  0  0  0  0  0  0  0  0  0  0  0
    1.7531   -0.0660    1.2141 H   0  0  0  0  0  0  0  0  0  0  0  0
    2.2748   -0.5702   -0.4027 H   0  0  0  0  0  0  0  0  0  0  0  0
    0.4027   -1.7953   -0.8203 H   0  0  0  0  0  0  0  0  0  0  0  0
    0.3273   -1.8562    0.9413 H   0  0  0  0  0  0  0  0  0  0  0  0
   -1.7072   -0.8849    0.9465 H   0  0  0  0  0  0  0  0  0  0  0  0
   -1.7188   -1.0327   -0.8147 H   0  0  0  0  0  0  0  0  0  0  0  0
   -2.1522    1.1905   -0.6944 H   0  0  0  0  0  0  0  0  0  0  0  0
   -1.4416    1.3651    0.9177 H   0  0  0  0  0  0  0  0  0  0  0  0
  1  2  2  0
  2  3  1  0
  3  4  1  0
  4  5  1  0
  5  6  1  0
  6  7  1  0
  7  2  1  0
  3  8  1  0
  3  9  1  0
  4 10  1  0
  4 11  1  0
  5 12  1  0
  5 13  1  0
  6 14  1  0
  6 15  1  0
M  END
