
     RDKit          3D

 16 17  0  0  0  0  0  0  0  0999 V2000
    1.0613    2.2475   -0.8187 O   0  0  0  0  0  0  0  0  0  0  0  0
    1.2465    1.1294   -0.2970 C   0  0  0  0  0  0  0  0  0  0  0  0
    2.3093    0.3906    0.2586 O   0  0  0  0  0  0  0  0  0  0  0  0
    1.5606   -0.8371    0.2810 C   0  0  0  0  0  0  0  0  0  0  0  0
    0.3867   -0.0087   -0.0011 C   0  0  0  0  0  0  0  0  0  0  0  0
   -0.6631    0.1542    1.0406 C   0  0  0  0  0  0  0  0  0  0  0  0
   -1.6723    0.2832   -0.1084 C   0  0  0  0  0  0  0  0  0  0  0  0
   -0.6238   -0.4258   -0.9784 C   0  0  0  0  0  0  0  0  0  0  0  0
    1.9011   -1.5216   -0.5223 H   0  0  0  0  0  0  0  0  0  0  0  0
    1.5178   -1.3071    1.2775 H   0  0  0  0  0  0  0  0  0  0  0  0
   -0.8142   -0.7588    1.6551 H   0  0  0  0  0  0  0  0  0  0  0  0
   -0.5223    1.0929    1.6178 H   0  0  0  0  0  0  0  0  0  0  0  0
   -2.5972   -0.2752    0.0409 H   0  0  0  0  0  0  0  0  0  0  0  0
   -1.7669    1.3560   -0.3857 H   0  0  0  0  0  0  0  0  0  0  0  0
   -0.5534   -0.0061   -2.0105 H   0  0  0  0  0  0  0  0  0  0  0  0
   -0.7703   -1.5134   -1.0493 H   0  0  0  0  0  0  0  0  0  0  0  0
  1  2  2  0
  2  3  1  0
  3  4  1  0
  4  5  1  0
  5  6  1  0
  6  7  1  0
  7  8  1  0
  5  2  1  0
  8  5  1  0
  4  9  1  0
  4 10  1  0
  6 11  1  0
  6 12  1  0
  7 13  1  0
  7 14  1  0
  8 15  1  0
  8 16  1  0
M  END
