
     RDKit          3D

 17 18  0  0  0  0  0  0  0  0999 V2000
   -0.8224   -2.4724   -1.1654 O   0  0  0  0  0  0  0  0  0  0  0  0
   -0.3648   -1.4468   -0.7180 C   0  0  0  0  0  0  0  0  0  0  0  0
    0.3884   -1.0577    0.5227 C   0  0  0  0  0  0  0  0  0  0  0  0
   -0.5748   -0.1703    1.2304 C   0  0  0  0  0  0  0  0  0  0  0  0
   -1.0962    0.6331    0.0190 C   0  0  0  0  0  0  0  0  0  0  0  0
   -0.8436    1.9666    0.2219 O   0  0  0  0  0  0  0  0  0  0  0  0
   -0.2393    0.0032   -1.0491 C   0  0  0  0  0  0  0  0  0  0  0  0
    1.1274   -0.0834   -0.4066 C   0  0  0  0  0  0  0  0  0  0  0  0
    1.5819    1.0584    0.2052 O   0  0  0  0  0  0  0  0  0  0  0  0
    0.9554   -1.7912    1.0247 H   0  0  0  0  0  0  0  0  0  0  0  0
   -0.0109    0.5299    1.9075 H   0  0  0  0  0  0  0  0  0  0  0  0
   -1.3813   -0.6783    1.7557 H   0  0  0  0  0  0  0  0  0  0  0  0
   -2.1639    0.3925   -0.1661 H   0  0  0  0  0  0  0  0  0  0  0  0
   -0.6832    2.4887   -0.5945 H   0  0  0  0  0  0  0  0  0  0  0  0
   -0.3264    0.3144   -2.0579 H   0  0  0  0  0  0  0  0  0  0  0  0
    1.8678   -0.6504   -1.0046 H   0  0  0  0  0  0  0  0  0  0  0  0
    2.5857    0.9638    0.2751 H   0  0  0  0  0  0  0  0  0  0  0  0
  1  2  2  0
  2  3  1  0
  3  4  1  0
  4  5  1  0
  5  6  1  0
  5  7  1  0
  7  8  1  0
  8  9  1  0
  7  2  1  0
  8  3  1  0
  3 10  1  0
  4 11  1  0
  4 12  1  0
  5 13  1  0
  6 14  1  0
  7 15  1  0
  8 16  1  0
  9 17  1  0
M  END
