
     RDKit          3D

 15 17  0  0  0  0  0  0  0  0999 V2000
    0.7664    2.5717    0.6148 O   0  0  0  0  0  0  0  0  0  0  0  0
    0.4994    1.4254    0.3542 C   0  0  0  0  0  0  0  0  0  0  0  0
    1.4435    0.4369   -0.2205 C   0  0  0  0  0  0  0  0  0  0  0  0
    0.5160   -0.6806   -0.7010 C   0  0  0  0  0  0  0  0  0  0  0  0
   -0.4333   -0.2117   -1.6378 O   0  0  0  0  0  0  0  0  0  0  0  0
   -1.3672    0.0798   -0.6319 C   0  0  0  0  0  0  0  0  0  0  0  0
   -0.8222    0.7898    0.5593 C   0  0  0  0  0  0  0  0  0  0  0  0
   -0.5445   -0.6320    0.3302 C   0  0  0  0  0  0  0  0  0  0  0  0
   -0.9099   -1.6514    1.1230 O   0  0  0  0  0  0  0  0  0  0  0  0
    2.0004    0.8861   -1.0648 H   0  0  0  0  0  0  0  0  0  0  0  0
    2.0986    0.0118    0.5389 H   0  0  0  0  0  0  0  0  0  0  0  0
    0.9897   -1.6203   -0.9484 H   0  0  0  0  0  0  0  0  0  0  0  0
   -2.4295   -0.0757   -0.8000 H   0  0  0  0  0  0  0  0  0  0  0  0
   -1.4883    1.0978    1.3629 H   0  0  0  0  0  0  0  0  0  0  0  0
   -0.3192   -2.4277    1.1212 H   0  0  0  0  0  0  0  0  0  0  0  0
  1  2  2  0
  2  3  1  0
  3  4  1  0
  4  5  1  0
  5  6  1  0
  6  7  1  0
  7  8  1  0
  8  9  1  0
  7  2  1  0
  8  4  1  0
  8  6  1  0
  3 10  1  0
  3 11  1  0
  4 12  1  0
  6 13  1  0
  7 14  1  0
  9 15  1  0
M  END
