
     RDKit          3D

 15 16  0  0  0  0  0  0  0  0999 V2000
   -2.4563   -1.7705    0.0749 O   0  0  0  0  0  0  0  0  0  0  0  0
   -1.4473   -1.0325    0.1045 C   0  0  0  0  0  0  0  0  0  0  0  0
   -1.6431    0.4298    0.1001 C   0  0  0  0  0  0  0  0  0  0  0  0
   -0.3702    1.1708   -0.1114 C   0  0  0  0  0  0  0  0  0  0  0  0
   -0.4262    2.3838    0.0126 O   0  0  0  0  0  0  0  0  0  0  0  0
    0.9099    0.5420   -0.4505 C   0  0  0  0  0  0  0  0  0  0  0  0
    1.7622   -0.1031    0.5950 C   0  0  0  0  0  0  0  0  0  0  0  0
    0.9485   -0.9143   -0.4059 C   0  0  0  0  0  0  0  0  0  0  0  0
   -0.1780   -1.5335    0.1406 O   0  0  0  0  0  0  0  0  0  0  0  0
   -2.3114    0.6819   -0.7588 H   0  0  0  0  0  0  0  0  0  0  0  0
   -2.0569    0.7819    1.0724 H   0  0  0  0  0  0  0  0  0  0  0  0
    1.5011    1.0523   -1.2607 H   0  0  0  0  0  0  0  0  0  0  0  0
    1.4221   -0.0949    1.6625 H   0  0  0  0  0  0  0  0  0  0  0  0
    2.8591   -0.1469    0.4432 H   0  0  0  0  0  0  0  0  0  0  0  0
    1.4864   -1.4470   -1.2186 H   0  0  0  0  0  0  0  0  0  0  0  0
  1  2  2  0
  2  3  1  0
  3  4  1  0
  4  5  2  0
  4  6  1  0
  6  7  1  0
  7  8  1  0
  8  9  1  0
  9  2  1  0
  8  6  1  0
  3 10  1  0
  3 11  1  0
  6 12  1  0
  7 13  1  0
  7 14  1  0
  8 15  1  0
M  END
