
     RDKit          3D

 15 16  0  0  0  0  0  0  0  0999 V2000
    0.5297    2.0755    1.2870 O   0  0  0  0  0  0  0  0  0  0  0  0
    0.4017    1.0869    0.6009 C   0  0  0  0  0  0  0  0  0  0  0  0
    1.2453    0.3745   -0.3989 C   0  0  0  0  0  0  0  0  0  0  0  0
    2.5671    0.1963   -0.0468 O   0  0  0  0  0  0  0  0  0  0  0  0
    0.3792   -0.8701   -0.1549 C   0  0  0  0  0  0  0  0  0  0  0  0
    0.1606   -1.5167   -1.3324 O   0  0  0  0  0  0  0  0  0  0  0  0
   -0.6366    0.0525    0.3715 C   0  0  0  0  0  0  0  0  0  0  0  0
   -1.9249    0.3261    0.0255 C   0  0  0  0  0  0  0  0  0  0  0  0
   -1.5425   -0.2720    1.3397 O   0  0  0  0  0  0  0  0  0  0  0  0
    1.0888    0.7760   -1.4138 H   0  0  0  0  0  0  0  0  0  0  0  0
    2.6137    0.0411    0.9223 H   0  0  0  0  0  0  0  0  0  0  0  0
    0.8779   -1.4669    0.6579 H   0  0  0  0  0  0  0  0  0  0  0  0
   -0.7606   -1.7766   -1.5219 H   0  0  0  0  0  0  0  0  0  0  0  0
   -2.3950    1.3340    0.1774 H   0  0  0  0  0  0  0  0  0  0  0  0
   -2.6045   -0.3607   -0.5135 H   0  0  0  0  0  0  0  0  0  0  0  0
  1  2  2  0
  2  3  1  0
  3  4  1  0
  3  5  1  0
  5  6  1  0
  5  7  1  0
  7  8  1  0
  8  9  1  0
  7  2  1  0
  9  7  1  0
  3 10  1  0
  4 11  1  0
  5 12  1  0
  6 13  1  0
  8 14  1  0
  8 15  1  0
M  END
