
     RDKit          3D

 17 18  0  0  0  0  0  0  0  0999 V2000
    1.4763   -0.8148   -2.0090 O   0  0  0  0  0  0  0  0  0  0  0  0
    1.1122   -0.4266   -0.9281 C   0  0  0  0  0  0  0  0  0  0  0  0
    1.7669   -0.6323    0.3842 C   0  0  0  0  0  0  0  0  0  0  0  0
    0.8420   -0.3112    1.3506 O   0  0  0  0  0  0  0  0  0  0  0  0
   -0.0827    0.5671    0.8586 C   0  0  0  0  0  0  0  0  0  0  0  0
   -1.4925   -0.0295    0.9382 C   0  0  0  0  0  0  0  0  0  0  0  0
   -1.3153   -0.4926   -0.4864 C   0  0  0  0  0  0  0  0  0  0  0  0
   -0.1040    0.3676   -0.6391 C   0  0  0  0  0  0  0  0  0  0  0  0
   -0.2661    1.5159   -1.3907 O   0  0  0  0  0  0  0  0  0  0  0  0
    2.6713    0.0123    0.4263 H   0  0  0  0  0  0  0  0  0  0  0  0
    2.1138   -1.6967    0.5126 H   0  0  0  0  0  0  0  0  0  0  0  0
   -0.0084    1.6193    1.1264 H   0  0  0  0  0  0  0  0  0  0  0  0
   -2.2918    0.7136    1.0059 H   0  0  0  0  0  0  0  0  0  0  0  0
   -1.5407   -0.8549    1.6855 H   0  0  0  0  0  0  0  0  0  0  0  0
   -1.1444   -1.5895   -0.5121 H   0  0  0  0  0  0  0  0  0  0  0  0
   -2.1096   -0.1676   -1.1903 H   0  0  0  0  0  0  0  0  0  0  0  0
    0.3730    2.2198   -1.1326 H   0  0  0  0  0  0  0  0  0  0  0  0
  1  2  2  0
  2  3  1  0
  3  4  1  0
  4  5  1  0
  5  6  1  0
  6  7  1  0
  7  8  1  0
  8  9  1  0
  8  2  1  0
  8  5  1  0
  3 10  1  0
  3 11  1  0
  5 12  1  0
  6 13  1  0
  6 14  1  0
  7 15  1  0
  7 16  1  0
  9 17  1  0
M  END
