
     RDKit          3D

 15 16  0  0  0  0  0  0  0  0999 V2000
    1.2707    2.5701    0.2438 O   0  0  0  0  0  0  0  0  0  0  0  0
    0.7194    1.4680    0.1530 C   0  0  0  0  0  0  0  0  0  0  0  0
   -0.7651    1.3856    0.0672 C   0  0  0  0  0  0  0  0  0  0  0  0
   -1.5366    0.3113    0.1966 C   0  0  0  0  0  0  0  0  0  0  0  0
   -1.0446   -1.0278    0.4559 C   0  0  0  0  0  0  0  0  0  0  0  0
   -1.0684   -2.1286   -0.2748 O   0  0  0  0  0  0  0  0  0  0  0  0
   -0.1184   -1.3449   -0.7426 C   0  0  0  0  0  0  0  0  0  0  0  0
    1.2029   -1.0052   -0.2588 C   0  0  0  0  0  0  0  0  0  0  0  0
    1.5543    0.2400    0.1312 C   0  0  0  0  0  0  0  0  0  0  0  0
   -1.2148    2.3535   -0.1249 H   0  0  0  0  0  0  0  0  0  0  0  0
   -2.5848    0.4894    0.0964 H   0  0  0  0  0  0  0  0  0  0  0  0
   -0.6105   -1.1438    1.4750 H   0  0  0  0  0  0  0  0  0  0  0  0
   -0.3646   -0.8293   -1.7118 H   0  0  0  0  0  0  0  0  0  0  0  0
    1.9972   -1.7450   -0.1816 H   0  0  0  0  0  0  0  0  0  0  0  0
    2.5634    0.4067    0.4755 H   0  0  0  0  0  0  0  0  0  0  0  0
  1  2  2  0
  2  3  1  0
  3  4  2  0
  4  5  1  0
  5  6  1  0
  6  7  1  0
  7  8  1  0
  8  9  2  0
  9  2  1  0
  7  5  1  0
  3 10  1  0
  4 11  1  0
  5 12  1  0
  7 13  1  0
  8 14  1  0
  9 15  1  0
M  END
