
     RDKit          3D

 13 14  0  0  0  0  0  0  0  0999 V2000
    0.6038    2.4475   -0.6565 O   0  0  0  0  0  0  0  0  0  0  0  0
    0.3905    1.3037   -0.1475 C   0  0  0  0  0  0  0  0  0  0  0  0
    1.5054    0.3835    0.0741 C   0  0  0  0  0  0  0  0  0  0  0  0
    1.2071   -0.9102    0.0468 C   0  0  0  0  0  0  0  0  0  0  0  0
   -0.1513   -1.3439   -0.1908 C   0  0  0  0  0  0  0  0  0  0  0  0
   -0.3867   -2.4625   -0.7499 O   0  0  0  0  0  0  0  0  0  0  0  0
   -1.2659   -0.4584    0.2302 C   0  0  0  0  0  0  0  0  0  0  0  0
   -1.7619    0.3209   -0.9018 O   0  0  0  0  0  0  0  0  0  0  0  0
   -0.9721    0.9058    0.2178 C   0  0  0  0  0  0  0  0  0  0  0  0
    2.5014    0.7650    0.2471 H   0  0  0  0  0  0  0  0  0  0  0  0
    1.9933   -1.6362    0.2044 H   0  0  0  0  0  0  0  0  0  0  0  0
   -2.0620   -0.9458    0.8159 H   0  0  0  0  0  0  0  0  0  0  0  0
   -1.6017    1.6307    0.8102 H   0  0  0  0  0  0  0  0  0  0  0  0
  1  2  2  0
  2  3  1  0
  3  4  2  0
  4  5  1  0
  5  6  2  0
  5  7  1  0
  7  8  1  0
  8  9  1  0
  9  2  1  0
  9  7  1  0
  3 10  1  0
  4 11  1  0
  7 12  1  0
  9 13  1  0
M  END
