
     RDKit          3D

 17 17  0  0  0  0  0  0  0  0999 V2000
    1.2998    2.6226   -0.5843 O   0  0  0  0  0  0  0  0  0  0  0  0
    0.7590    1.5663   -0.1825 C   0  0  0  0  0  0  0  0  0  0  0  0
    1.7418    0.4945    0.0753 C   0  0  0  0  0  0  0  0  0  0  0  0
    1.3736   -0.6079   -0.6742 O   0  0  0  0  0  0  0  0  0  0  0  0
    0.5550   -1.4939    0.0086 C   0  0  0  0  0  0  0  0  0  0  0  0
   -0.9149   -1.1936   -0.1924 C   0  0  0  0  0  0  0  0  0  0  0  0
   -1.4197   -0.3346    0.7725 O   0  0  0  0  0  0  0  0  0  0  0  0
   -1.7389    0.9143    0.2693 C   0  0  0  0  0  0  0  0  0  0  0  0
   -0.5967    1.6717   -0.0846 O   0  0  0  0  0  0  0  0  0  0  0  0
    2.7598    0.8039   -0.2876 H   0  0  0  0  0  0  0  0  0  0  0  0
    1.8642    0.2660    1.1544 H   0  0  0  0  0  0  0  0  0  0  0  0
    0.7329   -2.5005   -0.4506 H   0  0  0  0  0  0  0  0  0  0  0  0
    0.8117   -1.5974    1.0800 H   0  0  0  0  0  0  0  0  0  0  0  0
   -1.4745   -2.1505   -0.1570 H   0  0  0  0  0  0  0  0  0  0  0  0
   -1.0369   -0.7955   -1.2240 H   0  0  0  0  0  0  0  0  0  0  0  0
   -2.4510    0.8639   -0.5956 H   0  0  0  0  0  0  0  0  0  0  0  0
   -2.2652    1.4708    1.0728 H   0  0  0  0  0  0  0  0  0  0  0  0
  1  2  2  0
  2  3  1  0
  3  4  1  0
  4  5  1  0
  5  6  1  0
  6  7  1  0
  7  8  1  0
  8  9  1  0
  9  2  1  0
  3 10  1  0
  3 11  1  0
  5 12  1  0
  5 13  1  0
  6 14  1  0
  6 15  1  0
  8 16  1  0
  8 17  1  0
M  END
