
     RDKit          3D

 17 18  0  0  0  0  0  0  0  0999 V2000
    2.6359   -1.8834   -0.6500 O   0  0  0  0  0  0  0  0  0  0  0  0
    1.6543   -1.1277   -0.4326 C   0  0  0  0  0  0  0  0  0  0  0  0
    1.9378    0.2987   -0.4578 C   0  0  0  0  0  0  0  0  0  0  0  0
    1.0619    1.2699   -0.2525 C   0  0  0  0  0  0  0  0  0  0  0  0
   -0.3661    1.2856    0.0450 C   0  0  0  0  0  0  0  0  0  0  0  0
   -1.2123    0.1625   -0.2270 C   0  0  0  0  0  0  0  0  0  0  0  0
   -1.4784   -0.7428    1.0241 C   0  0  0  0  0  0  0  0  0  0  0  0
   -0.8860   -1.2074   -0.2266 C   0  0  0  0  0  0  0  0  0  0  0  0
    0.4109   -1.7023   -0.1923 O   0  0  0  0  0  0  0  0  0  0  0  0
    2.9730    0.6025   -0.6659 H   0  0  0  0  0  0  0  0  0  0  0  0
    1.5294    2.2538   -0.3246 H   0  0  0  0  0  0  0  0  0  0  0  0
   -0.7642    2.2277   -0.4543 H   0  0  0  0  0  0  0  0  0  0  0  0
   -0.4463    1.5803    1.1386 H   0  0  0  0  0  0  0  0  0  0  0  0
   -2.2113    0.4318   -0.7135 H   0  0  0  0  0  0  0  0  0  0  0  0
   -2.5082   -0.9205    1.3294 H   0  0  0  0  0  0  0  0  0  0  0  0
   -0.7874   -0.6155    1.8830 H   0  0  0  0  0  0  0  0  0  0  0  0
   -1.5432   -1.9132   -0.8230 H   0  0  0  0  0  0  0  0  0  0  0  0
  1  2  2  0
  2  3  1  0
  3  4  2  0
  4  5  1  0
  5  6  1  0
  6  7  1  0
  7  8  1  0
  8  9  1  0
  9  2  1  0
  8  6  1  0
  3 10  1  0
  4 11  1  0
  5 12  1  0
  5 13  1  0
  6 14  1  0
  7 15  1  0
  7 16  1  0
  8 17  1  0
M  END
