
     RDKit          3D

 16 17  0  0  0  0  0  0  0  0999 V2000
   -2.1441    0.5544    1.3580 O   0  0  0  0  0  0  0  0  0  0  0  0
   -1.2790    0.1424    0.6240 C   0  0  0  0  0  0  0  0  0  0  0  0
   -0.4024   -1.0306    0.3967 C   0  0  0  0  0  0  0  0  0  0  0  0
    1.0185   -0.7589    0.8569 C   0  0  0  0  0  0  0  0  0  0  0  0
    1.3085    0.5737    0.8616 O   0  0  0  0  0  0  0  0  0  0  0  0
    0.6844    1.3381   -0.0846 C   0  0  0  0  0  0  0  0  0  0  0  0
   -0.6253    0.7544   -0.5621 C   0  0  0  0  0  0  0  0  0  0  0  0
   -0.4137   -0.6455   -1.0920 C   0  0  0  0  0  0  0  0  0  0  0  0
   -0.8100   -2.0070    0.6201 H   0  0  0  0  0  0  0  0  0  0  0  0
    1.6818   -1.2998    0.1236 H   0  0  0  0  0  0  0  0  0  0  0  0
    1.2069   -1.2274    1.8299 H   0  0  0  0  0  0  0  0  0  0  0  0
    1.3017    1.5922   -0.9583 H   0  0  0  0  0  0  0  0  0  0  0  0
    0.4161    2.3183    0.4101 H   0  0  0  0  0  0  0  0  0  0  0  0
   -1.2182    1.4300   -1.1655 H   0  0  0  0  0  0  0  0  0  0  0  0
    0.5684   -0.7421   -1.5806 H   0  0  0  0  0  0  0  0  0  0  0  0
   -1.2937   -0.9921   -1.6378 H   0  0  0  0  0  0  0  0  0  0  0  0
  1  2  2  0
  2  3  1  0
  3  4  1  0
  4  5  1  0
  5  6  1  0
  6  7  1  0
  7  8  1  0
  7  2  1  0
  8  3  1  0
  3  9  1  0
  4 10  1  0
  4 11  1  0
  6 12  1  0
  6 13  1  0
  7 14  1  0
  8 15  1  0
  8 16  1  0
M  END
