
     RDKit          3D

 14 14  0  0  0  0  0  0  0  0999 V2000
    0.7877   -1.6453    1.0626 O   0  0  0  0  0  0  0  0  0  0  0  0
    0.3568   -0.7918    0.3313 C   0  0  0  0  0  0  0  0  0  0  0  0
   -1.0188   -0.6908   -0.2007 C   0  0  0  0  0  0  0  0  0  0  0  0
   -1.9739   -1.2479    0.6376 O   0  0  0  0  0  0  0  0  0  0  0  0
   -1.1805    0.7809   -0.3456 C   0  0  0  0  0  0  0  0  0  0  0  0
    0.0017    1.3794   -0.3595 C   0  0  0  0  0  0  0  0  0  0  0  0
    1.0788    0.3718   -0.2255 C   0  0  0  0  0  0  0  0  0  0  0  0
    2.1196    0.8016    0.5890 O   0  0  0  0  0  0  0  0  0  0  0  0
   -1.0152   -1.1810   -1.2038 H   0  0  0  0  0  0  0  0  0  0  0  0
   -1.5524   -1.7309    1.4113 H   0  0  0  0  0  0  0  0  0  0  0  0
   -2.1516    1.2535   -0.4252 H   0  0  0  0  0  0  0  0  0  0  0  0
    0.1651    2.4419   -0.4540 H   0  0  0  0  0  0  0  0  0  0  0  0
    1.4919    0.0604   -1.2066 H   0  0  0  0  0  0  0  0  0  0  0  0
    2.8907    0.1982    0.3889 H   0  0  0  0  0  0  0  0  0  0  0  0
  1  2  2  0
  2  3  1  0
  3  4  1  0
  3  5  1  0
  5  6  2  0
  6  7  1  0
  7  8  1  0
  7  2  1  0
  3  9  1  0
  4 10  1  0
  5 11  1  0
  6 12  1  0
  7 13  1  0
  8 14  1  0
M  END
