
     RDKit          3D

 17 18  0  0  0  0  0  0  0  0999 V2000
    0.0310   -2.5057   -0.9062 O   0  0  0  0  0  0  0  0  0  0  0  0
    0.0023   -1.3701   -0.5056 C   0  0  0  0  0  0  0  0  0  0  0  0
   -1.2450   -0.8406    0.1049 C   0  0  0  0  0  0  0  0  0  0  0  0
   -0.9753    0.5947    0.5795 C   0  0  0  0  0  0  0  0  0  0  0  0
   -0.4798    1.2849   -0.6457 C   0  0  0  0  0  0  0  0  0  0  0  0
    0.5913    0.7891   -1.2223 C   0  0  0  0  0  0  0  0  0  0  0  0
    1.1704   -0.4419   -0.5874 C   0  0  0  0  0  0  0  0  0  0  0  0
    1.3749    0.0032    0.8450 C   0  0  0  0  0  0  0  0  0  0  0  0
    0.2792    0.4721    1.4275 C   0  0  0  0  0  0  0  0  0  0  0  0
   -1.6650   -1.4669    0.8856 H   0  0  0  0  0  0  0  0  0  0  0  0
   -2.0166   -0.7567   -0.7148 H   0  0  0  0  0  0  0  0  0  0  0  0
   -1.7949    1.0592    1.0857 H   0  0  0  0  0  0  0  0  0  0  0  0
   -1.0163    2.1422   -0.9914 H   0  0  0  0  0  0  0  0  0  0  0  0
    1.0766    1.1794   -2.0881 H   0  0  0  0  0  0  0  0  0  0  0  0
    2.0444   -0.8311   -1.0574 H   0  0  0  0  0  0  0  0  0  0  0  0
    2.3389   -0.0676    1.3210 H   0  0  0  0  0  0  0  0  0  0  0  0
    0.2838    0.7559    2.4697 H   0  0  0  0  0  0  0  0  0  0  0  0
  1  2  2  0
  2  3  1  0
  3  4  1  0
  4  5  1  0
  5  6  2  0
  6  7  1  0
  7  8  1  0
  8  9  2  0
  7  2  1  0
  9  4  1  0
  3 10  1  0
  3 11  1  0
  4 12  1  0
  5 13  1  0
  6 14  1  0
  7 15  1  0
  8 16  1  0
  9 17  1  0
M  END
