
     RDKit          3D

 17 19  0  0  0  0  0  0  0  0999 V2000
   -0.0966   -1.6719   -1.9234 O   0  0  0  0  0  0  0  0  0  0  0  0
    0.1429   -0.9361   -0.9868 C   0  0  0  0  0  0  0  0  0  0  0  0
    1.3823   -0.5459   -0.2390 C   0  0  0  0  0  0  0  0  0  0  0  0
    2.2143   -1.5132    0.2485 O   0  0  0  0  0  0  0  0  0  0  0  0
    1.7236    0.8918   -0.1235 C   0  0  0  0  0  0  0  0  0  0  0  0
    0.5683    0.3252    0.6825 C   0  0  0  0  0  0  0  0  0  0  0  0
   -0.6153   -0.0669   -0.1152 C   0  0  0  0  0  0  0  0  0  0  0  0
   -1.5544    0.9696   -0.5615 C   0  0  0  0  0  0  0  0  0  0  0  0
   -1.9642   -0.2216    0.3327 C   0  0  0  0  0  0  0  0  0  0  0  0
    1.7945   -2.1524    0.8741 H   0  0  0  0  0  0  0  0  0  0  0  0
    2.6659    1.1341    0.3680 H   0  0  0  0  0  0  0  0  0  0  0  0
    1.3953    1.5239   -0.9766 H   0  0  0  0  0  0  0  0  0  0  0  0
    0.6375    0.2401    1.7585 H   0  0  0  0  0  0  0  0  0  0  0  0
   -1.4512    1.9566   -0.0559 H   0  0  0  0  0  0  0  0  0  0  0  0
   -1.8881    0.9786   -1.5986 H   0  0  0  0  0  0  0  0  0  0  0  0
   -2.6256   -0.9496   -0.2126 H   0  0  0  0  0  0  0  0  0  0  0  0
   -2.3295    0.0378    1.3425 H   0  0  0  0  0  0  0  0  0  0  0  0
  1  2  2  0
  2  3  1  0
  3  4  1  0
  3  5  1  0
  5  6  1  0
  6  7  1  0
  7  8  1  0
  8  9  1  0
  7  2  1  0
  6  3  1  0
  9  7  1  0
  4 10  1  0
  5 11  1  0
  5 12  1  0
  6 13  1  0
  8 14  1  0
  8 15  1  0
  9 16  1  0
  9 17  1  0
M  END
