
     RDKit          3D

 14 15  0  0  0  0  0  0  0  0999 V2000
    3.1678    0.0564   -0.1373 O   0  0  0  0  0  0  0  0  0  0  0  0
    1.9219    0.1063   -0.0500 C   0  0  0  0  0  0  0  0  0  0  0  0
    0.8702   -0.9288   -0.2070 C   0  0  0  0  0  0  0  0  0  0  0  0
   -0.0144    0.2333    0.0392 C   0  0  0  0  0  0  0  0  0  0  0  0
   -1.0828    0.5515   -0.9174 C   0  0  0  0  0  0  0  0  0  0  0  0
   -2.0274    0.3062    0.1044 O   0  0  0  0  0  0  0  0  0  0  0  0
   -1.0436    0.1131    1.1020 C   0  0  0  0  0  0  0  0  0  0  0  0
    1.0281    1.1261    0.2235 O   0  0  0  0  0  0  0  0  0  0  0  0
    0.7853   -1.3006   -1.2402 H   0  0  0  0  0  0  0  0  0  0  0  0
    0.8637   -1.7085    0.5820 H   0  0  0  0  0  0  0  0  0  0  0  0
   -1.1612    1.6088   -1.2108 H   0  0  0  0  0  0  0  0  0  0  0  0
   -1.1467   -0.1876   -1.7380 H   0  0  0  0  0  0  0  0  0  0  0  0
   -1.0307    0.9094    1.8625 H   0  0  0  0  0  0  0  0  0  0  0  0
   -1.1302   -0.8857    1.5869 H   0  0  0  0  0  0  0  0  0  0  0  0
  1  2  2  0
  2  3  1  0
  3  4  1  0
  4  5  1  0
  5  6  1  0
  6  7  1  0
  4  8  1  0
  8  2  1  0
  7  4  1  0
  3  9  1  0
  3 10  1  0
  5 11  1  0
  5 12  1  0
  7 13  1  0
  7 14  1  0
M  END
