
     RDKit          3D

 17 18  0  0  0  0  0  0  0  0999 V2000
    2.1627    1.7004   -0.7407 O   0  0  0  0  0  0  0  0  0  0  0  0
    1.2336    1.0893   -0.1575 C   0  0  0  0  0  0  0  0  0  0  0  0
    0.2359    1.7663    0.5642 O   0  0  0  0  0  0  0  0  0  0  0  0
   -1.1367    1.3233    0.4944 C   0  0  0  0  0  0  0  0  0  0  0  0
   -1.0897    0.1858   -0.4330 C   0  0  0  0  0  0  0  0  0  0  0  0
   -1.3298   -1.1941   -0.3047 C   0  0  0  0  0  0  0  0  0  0  0  0
   -0.1175   -0.7958    0.3022 C   0  0  0  0  0  0  0  0  0  0  0  0
    1.2059   -0.4271   -0.2475 C   0  0  0  0  0  0  0  0  0  0  0  0
    2.2461   -0.8129    0.6185 O   0  0  0  0  0  0  0  0  0  0  0  0
   -1.7601    2.1614    0.1819 H   0  0  0  0  0  0  0  0  0  0  0  0
   -1.3569    0.9783    1.5452 H   0  0  0  0  0  0  0  0  0  0  0  0
   -0.7513    0.5433   -1.4561 H   0  0  0  0  0  0  0  0  0  0  0  0
   -1.3264   -1.8349   -1.2262 H   0  0  0  0  0  0  0  0  0  0  0  0
   -2.1683   -1.5432    0.3633 H   0  0  0  0  0  0  0  0  0  0  0  0
   -0.1020   -0.7426    1.4317 H   0  0  0  0  0  0  0  0  0  0  0  0
    1.3934   -0.7482   -1.2878 H   0  0  0  0  0  0  0  0  0  0  0  0
    2.6612   -1.6495    0.3523 H   0  0  0  0  0  0  0  0  0  0  0  0
  1  2  2  0
  2  3  1  0
  3  4  1  0
  4  5  1  0
  5  6  1  0
  6  7  1  0
  7  8  1  0
  8  9  1  0
  8  2  1  0
  7  5  1  0
  4 10  1  0
  4 11  1  0
  5 12  1  0
  6 13  1  0
  6 14  1  0
  7 15  1  0
  8 16  1  0
  9 17  1  0
M  END
