
     RDKit          3D

 17 17  0  0  0  0  0  0  0  0999 V2000
   -0.8937    2.9001    0.1571 O   0  0  0  0  0  0  0  0  0  0  0  0
   -0.3818    1.7893    0.4350 C   0  0  0  0  0  0  0  0  0  0  0  0
   -1.2671    0.6039    0.5336 C   0  0  0  0  0  0  0  0  0  0  0  0
   -0.7328   -0.4288   -0.4527 C   0  0  0  0  0  0  0  0  0  0  0  0
   -1.2368   -1.6993   -0.1393 O   0  0  0  0  0  0  0  0  0  0  0  0
    0.7460   -0.4510   -0.5377 C   0  0  0  0  0  0  0  0  0  0  0  0
    1.1967   -1.7749   -0.5780 O   0  0  0  0  0  0  0  0  0  0  0  0
    1.4387    0.2020    0.6432 C   0  0  0  0  0  0  0  0  0  0  0  0
    0.9652    1.5591    0.6641 O   0  0  0  0  0  0  0  0  0  0  0  0
   -2.3153    0.8341    0.3603 H   0  0  0  0  0  0  0  0  0  0  0  0
   -1.1271    0.1597    1.5594 H   0  0  0  0  0  0  0  0  0  0  0  0
   -1.1659   -0.1226   -1.4503 H   0  0  0  0  0  0  0  0  0  0  0  0
   -2.0815   -1.8192   -0.6229 H   0  0  0  0  0  0  0  0  0  0  0  0
    1.1071    0.1061   -1.4491 H   0  0  0  0  0  0  0  0  0  0  0  0
    2.0075   -1.7721   -1.1386 H   0  0  0  0  0  0  0  0  0  0  0  0
    2.5229    0.2225    0.4234 H   0  0  0  0  0  0  0  0  0  0  0  0
    1.2181   -0.3088    1.5925 H   0  0  0  0  0  0  0  0  0  0  0  0
  1  2  2  0
  2  3  1  0
  3  4  1  0
  4  5  1  0
  4  6  1  0
  6  7  1  0
  6  8  1  0
  8  9  1  0
  9  2  1  0
  3 10  1  0
  3 11  1  0
  4 12  1  0
  5 13  1  0
  6 14  1  0
  7 15  1  0
  8 16  1  0
  8 17  1  0
M  END
