
     RDKit          3D

 17 18  0  0  0  0  0  0  0  0999 V2000
    1.6361   -0.8476    1.8052 O   0  0  0  0  0  0  0  0  0  0  0  0
    1.3508   -0.5163    0.6755 C   0  0  0  0  0  0  0  0  0  0  0  0
    2.1238   -0.3298   -0.5563 C   0  0  0  0  0  0  0  0  0  0  0  0
    0.9396   -0.4299   -1.2800 O   0  0  0  0  0  0  0  0  0  0  0  0
    0.2030   -0.1233   -0.1479 C   0  0  0  0  0  0  0  0  0  0  0  0
   -1.0601   -0.8963    0.0599 C   0  0  0  0  0  0  0  0  0  0  0  0
   -1.9551    0.1591    0.7222 C   0  0  0  0  0  0  0  0  0  0  0  0
   -1.5547    1.3684    0.2055 O   0  0  0  0  0  0  0  0  0  0  0  0
   -0.2218    1.3037   -0.1082 C   0  0  0  0  0  0  0  0  0  0  0  0
    2.8240   -1.1162   -0.8495 H   0  0  0  0  0  0  0  0  0  0  0  0
    2.6124    0.6684   -0.5933 H   0  0  0  0  0  0  0  0  0  0  0  0
   -1.5404   -1.2299   -0.8901 H   0  0  0  0  0  0  0  0  0  0  0  0
   -0.8877   -1.7473    0.7531 H   0  0  0  0  0  0  0  0  0  0  0  0
   -1.7793    0.1871    1.8172 H   0  0  0  0  0  0  0  0  0  0  0  0
   -3.0142   -0.1016    0.4689 H   0  0  0  0  0  0  0  0  0  0  0  0
    0.4239    1.9022    0.5634 H   0  0  0  0  0  0  0  0  0  0  0  0
   -0.1004    1.7494   -1.1345 H   0  0  0  0  0  0  0  0  0  0  0  0
  1  2  2  0
  2  3  1  0
  3  4  1  0
  4  5  1  0
  5  6  1  0
  6  7  1  0
  7  8  1  0
  8  9  1  0
  5  2  1  0
  9  5  1  0
  3 10  1  0
  3 11  1  0
  6 12  1  0
  6 13  1  0
  7 14  1  0
  7 15  1  0
  9 16  1  0
  9 17  1  0
M  END
