
     RDKit          3D

 17 18  0  0  0  0  0  0  0  0999 V2000
    0.1303   -2.1761    1.1956 O   0  0  0  0  0  0  0  0  0  0  0  0
   -0.0134   -1.2429    0.4354 C   0  0  0  0  0  0  0  0  0  0  0  0
   -1.2331   -1.1488   -0.4103 C   0  0  0  0  0  0  0  0  0  0  0  0
   -1.8208    0.2084   -0.1175 C   0  0  0  0  0  0  0  0  0  0  0  0
   -1.0403    1.1966    0.2604 C   0  0  0  0  0  0  0  0  0  0  0  0
    0.4185    1.1289    0.4407 C   0  0  0  0  0  0  0  0  0  0  0  0
    1.1646    0.6842   -0.8082 C   0  0  0  0  0  0  0  0  0  0  0  0
    1.0212   -0.2142    0.3588 C   0  0  0  0  0  0  0  0  0  0  0  0
    2.1758   -0.4665    1.0969 O   0  0  0  0  0  0  0  0  0  0  0  0
   -0.9838   -1.2272   -1.4854 H   0  0  0  0  0  0  0  0  0  0  0  0
   -1.9558   -1.9312   -0.0986 H   0  0  0  0  0  0  0  0  0  0  0  0
   -2.8768    0.3709   -0.2169 H   0  0  0  0  0  0  0  0  0  0  0  0
   -1.5142    2.1600    0.4606 H   0  0  0  0  0  0  0  0  0  0  0  0
    0.8965    1.8448    1.1156 H   0  0  0  0  0  0  0  0  0  0  0  0
    0.5982    0.4730   -1.7290 H   0  0  0  0  0  0  0  0  0  0  0  0
    2.1503    1.1493   -0.9625 H   0  0  0  0  0  0  0  0  0  0  0  0
    2.8829   -0.8091    0.4646 H   0  0  0  0  0  0  0  0  0  0  0  0
  1  2  2  0
  2  3  1  0
  3  4  1  0
  4  5  2  0
  5  6  1  0
  6  7  1  0
  7  8  1  0
  8  9  1  0
  8  2  1  0
  8  6  1  0
  3 10  1  0
  3 11  1  0
  4 12  1  0
  5 13  1  0
  6 14  1  0
  7 15  1  0
  7 16  1  0
  9 17  1  0
M  END
