
     RDKit          3D

 16 17  0  0  0  0  0  0  0  0999 V2000
   -0.9375   -2.2499    0.7299 O   0  0  0  0  0  0  0  0  0  0  0  0
   -0.6848   -1.0921    0.5049 C   0  0  0  0  0  0  0  0  0  0  0  0
   -1.6832   -0.2032   -0.1721 C   0  0  0  0  0  0  0  0  0  0  0  0
   -1.0857    1.1703   -0.3992 C   0  0  0  0  0  0  0  0  0  0  0  0
    0.2303    1.3200   -0.5772 C   0  0  0  0  0  0  0  0  0  0  0  0
    1.0139    0.1050   -0.5373 C   0  0  0  0  0  0  0  0  0  0  0  0
    1.8844   -0.5044    0.3788 C   0  0  0  0  0  0  0  0  0  0  0  0
    0.5663   -0.4804    0.8588 C   0  0  0  0  0  0  0  0  0  0  0  0
   -2.6317   -0.1422    0.3536 H   0  0  0  0  0  0  0  0  0  0  0  0
   -1.7873   -0.6269   -1.2142 H   0  0  0  0  0  0  0  0  0  0  0  0
   -1.7421    2.0319   -0.4154 H   0  0  0  0  0  0  0  0  0  0  0  0
    0.7187    2.2680   -0.7431 H   0  0  0  0  0  0  0  0  0  0  0  0
    0.7451   -0.5289   -1.4408 H   0  0  0  0  0  0  0  0  0  0  0  0
    2.3519   -1.4900    0.1265 H   0  0  0  0  0  0  0  0  0  0  0  0
    2.6714    0.1326    0.8748 H   0  0  0  0  0  0  0  0  0  0  0  0
    0.3703    0.2903    1.6721 H   0  0  0  0  0  0  0  0  0  0  0  0
  1  2  2  0
  2  3  1  0
  3  4  1  0
  4  5  2  0
  5  6  1  0
  6  7  1  0
  7  8  1  0
  8  2  1  0
  8  6  1  0
  3  9  1  0
  3 10  1  0
  4 11  1  0
  5 12  1  0
  6 13  1  0
  7 14  1  0
  7 15  1  0
  8 16  1  0
M  END
