
     RDKit          3D

 19 20  0  0  0  0  0  0  0  0999 V2000
    0.6120    2.5897    0.5277 O   0  0  0  0  0  0  0  0  0  0  0  0
    0.4947    1.4307    0.1657 C   0  0  0  0  0  0  0  0  0  0  0  0
    1.7323    0.5931    0.2008 C   0  0  0  0  0  0  0  0  0  0  0  0
    1.4140   -0.8159   -0.3128 C   0  0  0  0  0  0  0  0  0  0  0  0
    0.1660   -1.2595    0.3825 C   0  0  0  0  0  0  0  0  0  0  0  0
   -1.0027   -0.5166   -0.2544 C   0  0  0  0  0  0  0  0  0  0  0  0
   -1.5203   -1.1030   -1.3883 O   0  0  0  0  0  0  0  0  0  0  0  0
   -1.7899    0.3243    0.6514 C   0  0  0  0  0  0  0  0  0  0  0  0
   -0.8189    0.9445   -0.2699 C   0  0  0  0  0  0  0  0  0  0  0  0
    2.0266    0.4885    1.2610 H   0  0  0  0  0  0  0  0  0  0  0  0
    2.5480    1.0048   -0.4055 H   0  0  0  0  0  0  0  0  0  0  0  0
    1.2249   -0.7576   -1.4177 H   0  0  0  0  0  0  0  0  0  0  0  0
    2.3006   -1.4270   -0.0888 H   0  0  0  0  0  0  0  0  0  0  0  0
   -0.0162   -2.3422    0.3442 H   0  0  0  0  0  0  0  0  0  0  0  0
    0.2788   -0.9778    1.4647 H   0  0  0  0  0  0  0  0  0  0  0  0
   -1.9402   -0.3981   -1.9530 H   0  0  0  0  0  0  0  0  0  0  0  0
   -1.5511    0.3077    1.7541 H   0  0  0  0  0  0  0  0  0  0  0  0
   -2.8754    0.4082    0.4661 H   0  0  0  0  0  0  0  0  0  0  0  0
   -1.2833    1.5064   -1.1276 H   0  0  0  0  0  0  0  0  0  0  0  0
  1  2  2  0
  2  3  1  0
  3  4  1  0
  4  5  1  0
  5  6  1  0
  6  7  1  0
  6  8  1  0
  8  9  1  0
  9  2  1  0
  9  6  1  0
  3 10  1  0
  3 11  1  0
  4 12  1  0
  4 13  1  0
  5 14  1  0
  5 15  1  0
  7 16  1  0
  8 17  1  0
  8 18  1  0
  9 19  1  0
M  END
