
     RDKit          3D

 19 20  0  0  0  0  0  0  0  0999 V2000
   -0.2850    2.7562    0.5570 O   0  0  0  0  0  0  0  0  0  0  0  0
   -0.2018    1.5531    0.4193 C   0  0  0  0  0  0  0  0  0  0  0  0
   -1.5247    0.9209    0.1706 C   0  0  0  0  0  0  0  0  0  0  0  0
   -1.5394   -0.1575    1.0562 O   0  0  0  0  0  0  0  0  0  0  0  0
   -1.2404   -1.2772    0.3351 C   0  0  0  0  0  0  0  0  0  0  0  0
    0.1036   -1.3277   -0.3030 C   0  0  0  0  0  0  0  0  0  0  0  0
    1.1881   -0.5225    0.2135 C   0  0  0  0  0  0  0  0  0  0  0  0
    1.7509    0.5324   -0.7672 C   0  0  0  0  0  0  0  0  0  0  0  0
    1.0828    0.8780    0.5019 C   0  0  0  0  0  0  0  0  0  0  0  0
   -2.3687    1.6044    0.3598 H   0  0  0  0  0  0  0  0  0  0  0  0
   -1.6116    0.5918   -0.8886 H   0  0  0  0  0  0  0  0  0  0  0  0
   -2.0648   -1.3771   -0.4281 H   0  0  0  0  0  0  0  0  0  0  0  0
   -1.4332   -2.1604    1.0175 H   0  0  0  0  0  0  0  0  0  0  0  0
   -0.0446   -1.1519   -1.3977 H   0  0  0  0  0  0  0  0  0  0  0  0
    0.3922   -2.4224   -0.2772 H   0  0  0  0  0  0  0  0  0  0  0  0
    2.0183   -1.0730    0.7398 H   0  0  0  0  0  0  0  0  0  0  0  0
    1.1834    0.6999   -1.6990 H   0  0  0  0  0  0  0  0  0  0  0  0
    2.8300    0.6202   -0.8831 H   0  0  0  0  0  0  0  0  0  0  0  0
    1.7650    1.3128    1.2734 H   0  0  0  0  0  0  0  0  0  0  0  0
  1  2  2  0
  2  3  1  0
  3  4  1  0
  4  5  1  0
  5  6  1  0
  6  7  1  0
  7  8  1  0
  8  9  1  0
  9  2  1  0
  9  7  1  0
  3 10  1  0
  3 11  1  0
  5 12  1  0
  5 13  1  0
  6 14  1  0
  6 15  1  0
  7 16  1  0
  8 17  1  0
  8 18  1  0
  9 19  1  0
M  END
