
     RDKit          3D

 17 18  0  0  0  0  0  0  0  0999 V2000
    1.7503   -0.3810    1.7092 O   0  0  0  0  0  0  0  0  0  0  0  0
    1.6061    0.0234    0.5790 C   0  0  0  0  0  0  0  0  0  0  0  0
    2.5132    0.5280   -0.4771 C   0  0  0  0  0  0  0  0  0  0  0  0
    1.5966    0.0059   -1.4199 O   0  0  0  0  0  0  0  0  0  0  0  0
    0.5959    0.2928   -0.4719 C   0  0  0  0  0  0  0  0  0  0  0  0
   -0.5268   -0.6782   -0.4058 C   0  0  0  0  0  0  0  0  0  0  0  0
   -1.2701   -0.6412    0.9441 C   0  0  0  0  0  0  0  0  0  0  0  0
   -1.9331   -0.3195   -0.3593 C   0  0  0  0  0  0  0  0  0  0  0  0
   -2.3781    0.9837   -0.6043 O   0  0  0  0  0  0  0  0  0  0  0  0
    3.5161    0.0869   -0.5204 H   0  0  0  0  0  0  0  0  0  0  0  0
    2.5151    1.6400   -0.4649 H   0  0  0  0  0  0  0  0  0  0  0  0
    0.2696    1.3518   -0.5618 H   0  0  0  0  0  0  0  0  0  0  0  0
   -0.2610   -1.7033   -0.7893 H   0  0  0  0  0  0  0  0  0  0  0  0
   -1.1133    0.2126    1.6026 H   0  0  0  0  0  0  0  0  0  0  0  0
   -1.4204   -1.6095    1.4415 H   0  0  0  0  0  0  0  0  0  0  0  0
   -2.6687   -1.0839   -0.6944 H   0  0  0  0  0  0  0  0  0  0  0  0
   -2.7915    1.2916    0.2609 H   0  0  0  0  0  0  0  0  0  0  0  0
  1  2  2  0
  2  3  1  0
  3  4  1  0
  4  5  1  0
  5  6  1  0
  6  7  1  0
  7  8  1  0
  8  9  1  0
  5  2  1  0
  8  6  1  0
  3 10  1  0
  3 11  1  0
  5 12  1  0
  6 13  1  0
  7 14  1  0
  7 15  1  0
  8 16  1  0
  9 17  1  0
M  END
