
     RDKit          3D

 19 20  0  0  0  0  0  0  0  0999 V2000
    0.2973    1.9024   -1.8127 O   0  0  0  0  0  0  0  0  0  0  0  0
    0.6645    1.2303   -0.8294 C   0  0  0  0  0  0  0  0  0  0  0  0
    1.8418    1.4165   -0.1360 O   0  0  0  0  0  0  0  0  0  0  0  0
    2.2079    0.1897    0.5018 C   0  0  0  0  0  0  0  0  0  0  0  0
    1.0423   -0.7384    0.3511 C   0  0  0  0  0  0  0  0  0  0  0  0
   -0.0443    0.1319   -0.2104 C   0  0  0  0  0  0  0  0  0  0  0  0
   -1.0487   -0.6212   -0.9954 C   0  0  0  0  0  0  0  0  0  0  0  0
   -2.0295   -0.4248    0.1696 C   0  0  0  0  0  0  0  0  0  0  0  0
   -1.0817    0.6066    0.7727 C   0  0  0  0  0  0  0  0  0  0  0  0
    2.4324    0.3796    1.5708 H   0  0  0  0  0  0  0  0  0  0  0  0
    3.1123   -0.1696   -0.0574 H   0  0  0  0  0  0  0  0  0  0  0  0
    0.7701   -1.2708    1.2681 H   0  0  0  0  0  0  0  0  0  0  0  0
    1.3070   -1.4843   -0.4529 H   0  0  0  0  0  0  0  0  0  0  0  0
   -1.3888   -0.1947   -1.9465 H   0  0  0  0  0  0  0  0  0  0  0  0
   -0.8021   -1.7097   -1.1234 H   0  0  0  0  0  0  0  0  0  0  0  0
   -2.1177   -1.3276    0.7863 H   0  0  0  0  0  0  0  0  0  0  0  0
   -2.9669   -0.0005   -0.2139 H   0  0  0  0  0  0  0  0  0  0  0  0
   -0.8015    0.4354    1.8128 H   0  0  0  0  0  0  0  0  0  0  0  0
   -1.3944    1.6492    0.5448 H   0  0  0  0  0  0  0  0  0  0  0  0
  1  2  2  0
  2  3  1  0
  3  4  1  0
  4  5  1  0
  5  6  1  0
  6  7  1  0
  7  8  1  0
  8  9  1  0
  6  2  1  0
  9  6  1  0
  4 10  1  0
  4 11  1  0
  5 12  1  0
  5 13  1  0
  7 14  1  0
  7 15  1  0
  8 16  1  0
  8 17  1  0
  9 18  1  0
  9 19  1  0
M  END
