
     RDKit          3D

 19 20  0  0  0  0  0  0  0  0999 V2000
   -0.4146   -1.6509    1.5686 O   0  0  0  0  0  0  0  0  0  0  0  0
    0.1036   -0.7955    0.8751 C   0  0  0  0  0  0  0  0  0  0  0  0
    1.5637   -0.5666    1.0163 C   0  0  0  0  0  0  0  0  0  0  0  0
    2.1294    0.1283   -0.2067 C   0  0  0  0  0  0  0  0  0  0  0  0
    1.3393   -0.0830   -1.3372 O   0  0  0  0  0  0  0  0  0  0  0  0
    0.1292    0.5620   -1.1961 C   0  0  0  0  0  0  0  0  0  0  0  0
   -0.6912   -0.0151   -0.0708 C   0  0  0  0  0  0  0  0  0  0  0  0
   -1.8929    0.7438    0.3104 C   0  0  0  0  0  0  0  0  0  0  0  0
   -2.0882   -0.5478   -0.3907 C   0  0  0  0  0  0  0  0  0  0  0  0
    2.1369   -1.5002    1.1607 H   0  0  0  0  0  0  0  0  0  0  0  0
    1.7006    0.0727    1.9172 H   0  0  0  0  0  0  0  0  0  0  0  0
    2.1326    1.2213   -0.0170 H   0  0  0  0  0  0  0  0  0  0  0  0
    3.1668   -0.1951   -0.3761 H   0  0  0  0  0  0  0  0  0  0  0  0
   -0.4361    0.4970   -2.1505 H   0  0  0  0  0  0  0  0  0  0  0  0
    0.3072    1.6281   -0.9753 H   0  0  0  0  0  0  0  0  0  0  0  0
   -2.1658    1.6377   -0.2902 H   0  0  0  0  0  0  0  0  0  0  0  0
   -2.2097    0.8394    1.3799 H   0  0  0  0  0  0  0  0  0  0  0  0
   -2.3446   -0.5879   -1.4577 H   0  0  0  0  0  0  0  0  0  0  0  0
   -2.4660   -1.3883    0.2403 H   0  0  0  0  0  0  0  0  0  0  0  0
  1  2  2  0
  2  3  1  0
  3  4  1  0
  4  5  1  0
  5  6  1  0
  6  7  1  0
  7  8  1  0
  8  9  1  0
  7  2  1  0
  9  7  1  0
  3 10  1  0
  3 11  1  0
  4 12  1  0
  4 13  1  0
  6 14  1  0
  6 15  1  0
  8 16  1  0
  8 17  1  0
  9 18  1  0
  9 19  1  0
M  END
