
     RDKit          3D

 17 19  0  0  0  0  0  0  0  0999 V2000
    0.7176    2.5769    0.6556 O   0  0  0  0  0  0  0  0  0  0  0  0
    0.2702    1.5719    0.1598 C   0  0  0  0  0  0  0  0  0  0  0  0
   -0.9642    0.7634    0.3241 C   0  0  0  0  0  0  0  0  0  0  0  0
   -0.7257   -0.4990    1.1611 C   0  0  0  0  0  0  0  0  0  0  0  0
    0.0003   -1.3614    0.1637 C   0  0  0  0  0  0  0  0  0  0  0  0
    1.2786   -0.6355   -0.2059 C   0  0  0  0  0  0  0  0  0  0  0  0
    0.7062    0.6039   -0.8763 C   0  0  0  0  0  0  0  0  0  0  0  0
   -0.7435    0.2314   -1.0688 C   0  0  0  0  0  0  0  0  0  0  0  0
   -0.7656   -1.1532   -0.9925 O   0  0  0  0  0  0  0  0  0  0  0  0
   -1.8881    1.2917    0.5220 H   0  0  0  0  0  0  0  0  0  0  0  0
   -0.0141   -0.2476    1.9655 H   0  0  0  0  0  0  0  0  0  0  0  0
   -1.6737   -0.9237    1.5090 H   0  0  0  0  0  0  0  0  0  0  0  0
    0.1261   -2.3923    0.4400 H   0  0  0  0  0  0  0  0  0  0  0  0
    1.9299   -1.2178   -0.8726 H   0  0  0  0  0  0  0  0  0  0  0  0
    1.7807   -0.3010    0.7267 H   0  0  0  0  0  0  0  0  0  0  0  0
    1.2444    0.9883   -1.7318 H   0  0  0  0  0  0  0  0  0  0  0  0
   -1.2792    0.7041   -1.8797 H   0  0  0  0  0  0  0  0  0  0  0  0
  1  2  2  0
  2  3  1  0
  3  4  1  0
  4  5  1  0
  5  6  1  0
  6  7  1  0
  7  8  1  0
  8  9  1  0
  7  2  1  0
  8  3  1  0
  9  5  1  0
  3 10  1  0
  4 11  1  0
  4 12  1  0
  5 13  1  0
  6 14  1  0
  6 15  1  0
  7 16  1  0
  8 17  1  0
M  END
