
     RDKit          3D

 17 19  0  0  0  0  0  0  0  0999 V2000
    2.3806   -0.9673   -1.0842 O   0  0  0  0  0  0  0  0  0  0  0  0
    1.3840   -0.6352   -0.5569 C   0  0  0  0  0  0  0  0  0  0  0  0
    1.1632   -0.2361    0.8516 C   0  0  0  0  0  0  0  0  0  0  0  0
    0.5968    1.1550    0.5993 C   0  0  0  0  0  0  0  0  0  0  0  0
   -0.4130    0.8417   -0.5029 C   0  0  0  0  0  0  0  0  0  0  0  0
   -1.6019    0.1373    0.1261 C   0  0  0  0  0  0  0  0  0  0  0  0
   -0.7463   -1.1092    0.0917 C   0  0  0  0  0  0  0  0  0  0  0  0
    0.1165   -1.1224    1.1791 O   0  0  0  0  0  0  0  0  0  0  0  0
    0.0080   -0.4879   -1.0635 C   0  0  0  0  0  0  0  0  0  0  0  0
    2.0065   -0.2816    1.5031 H   0  0  0  0  0  0  0  0  0  0  0  0
    0.1410    1.6017    1.4804 H   0  0  0  0  0  0  0  0  0  0  0  0
    1.3967    1.7416    0.1263 H   0  0  0  0  0  0  0  0  0  0  0  0
   -0.6304    1.6411   -1.1940 H   0  0  0  0  0  0  0  0  0  0  0  0
   -2.4903    0.0708   -0.5319 H   0  0  0  0  0  0  0  0  0  0  0  0
   -1.8093    0.4508    1.1782 H   0  0  0  0  0  0  0  0  0  0  0  0
   -1.2602   -2.0435   -0.1461 H   0  0  0  0  0  0  0  0  0  0  0  0
   -0.2418   -0.7568   -2.0562 H   0  0  0  0  0  0  0  0  0  0  0  0
  1  2  2  0
  2  3  1  0
  3  4  1  0
  4  5  1  0
  5  6  1  0
  6  7  1  0
  7  8  1  0
  7  9  1  0
  9  2  1  0
  8  3  1  0
  9  5  1  0
  3 10  1  0
  4 11  1  0
  4 12  1  0
  5 13  1  0
  6 14  1  0
  6 15  1  0
  7 16  1  0
  9 17  1  0
M  END
