
     RDKit          3D

 17 18  0  0  0  0  0  0  0  0999 V2000
   -2.1751    0.2189    1.6118 O   0  0  0  0  0  0  0  0  0  0  0  0
   -1.6006    0.0802    0.5635 C   0  0  0  0  0  0  0  0  0  0  0  0
   -1.6780   -0.7459   -0.6890 C   0  0  0  0  0  0  0  0  0  0  0  0
   -0.1836   -0.5407   -0.8104 C   0  0  0  0  0  0  0  0  0  0  0  0
    0.5901   -1.4189   -0.0716 O   0  0  0  0  0  0  0  0  0  0  0  0
    1.8116   -0.7321    0.1241 C   0  0  0  0  0  0  0  0  0  0  0  0
    1.5958    0.1391    1.1647 O   0  0  0  0  0  0  0  0  0  0  0  0
    0.6728    1.1044    0.8896 C   0  0  0  0  0  0  0  0  0  0  0  0
   -0.3969    0.7430   -0.0599 C   0  0  0  0  0  0  0  0  0  0  0  0
   -2.1836   -0.1445   -1.4855 H   0  0  0  0  0  0  0  0  0  0  0  0
   -2.0227   -1.7701   -0.5583 H   0  0  0  0  0  0  0  0  0  0  0  0
    0.2107   -0.3938   -1.8141 H   0  0  0  0  0  0  0  0  0  0  0  0
    2.0443   -0.1311   -0.8005 H   0  0  0  0  0  0  0  0  0  0  0  0
    2.6483   -1.4019    0.2946 H   0  0  0  0  0  0  0  0  0  0  0  0
    1.1737    2.0602    0.5588 H   0  0  0  0  0  0  0  0  0  0  0  0
    0.1863    1.3885    1.8696 H   0  0  0  0  0  0  0  0  0  0  0  0
   -0.6930    1.5447   -0.7873 H   0  0  0  0  0  0  0  0  0  0  0  0
  1  2  2  0
  2  3  1  0
  3  4  1  0
  4  5  1  0
  5  6  1  0
  6  7  1  0
  7  8  1  0
  8  9  1  0
  9  2  1  0
  9  4  1  0
  3 10  1  0
  3 11  1  0
  4 12  1  0
  6 13  1  0
  6 14  1  0
  8 15  1  0
  8 16  1  0
  9 17  1  0
M  END
