
     RDKit          3D

 17 18  0  0  0  0  0  0  0  0999 V2000
   -1.4503   -2.5713   -1.3883 O   0  0  0  0  0  0  0  0  0  0  0  0
   -1.5649   -1.4401   -0.8945 C   0  0  0  0  0  0  0  0  0  0  0  0
   -2.6783   -0.7345   -0.4840 O   0  0  0  0  0  0  0  0  0  0  0  0
   -1.7683    0.0506    0.2946 C   0  0  0  0  0  0  0  0  0  0  0  0
   -1.0459    1.0538   -0.5322 C   0  0  0  0  0  0  0  0  0  0  0  0
   -0.6324   -0.3630   -0.5266 C   0  0  0  0  0  0  0  0  0  0  0  0
    0.7362   -0.6642   -0.0414 C   0  0  0  0  0  0  0  0  0  0  0  0
    1.5352    0.5739    0.2891 C   0  0  0  0  0  0  0  0  0  0  0  0
    2.8062    0.1379    0.7182 O   0  0  0  0  0  0  0  0  0  0  0  0
   -1.8192    0.0617    1.3686 H   0  0  0  0  0  0  0  0  0  0  0  0
   -0.4874    1.7956    0.0355 H   0  0  0  0  0  0  0  0  0  0  0  0
   -1.5262    1.4557   -1.4611 H   0  0  0  0  0  0  0  0  0  0  0  0
    0.7627   -1.3067    0.8643 H   0  0  0  0  0  0  0  0  0  0  0  0
    1.2955   -1.2130   -0.8487 H   0  0  0  0  0  0  0  0  0  0  0  0
    1.5623    1.2419   -0.5653 H   0  0  0  0  0  0  0  0  0  0  0  0
    1.0383    1.1230    1.1398 H   0  0  0  0  0  0  0  0  0  0  0  0
    3.2366    0.7988    1.3083 H   0  0  0  0  0  0  0  0  0  0  0  0
  1  2  2  0
  2  3  1  0
  3  4  1  0
  4  5  1  0
  5  6  1  0
  6  7  1  0
  7  8  1  0
  8  9  1  0
  6  2  1  0
  6  4  1  0
  4 10  1  0
  5 11  1  0
  5 12  1  0
  7 13  1  0
  7 14  1  0
  8 15  1  0
  8 16  1  0
  9 17  1  0
M  END
