
     RDKit          3D

 16 16  0  0  0  0  0  0  0  0999 V2000
    0.1945   -2.4295   -0.6977 O   0  0  0  0  0  0  0  0  0  0  0  0
    0.0876   -1.2634   -0.3521 C   0  0  0  0  0  0  0  0  0  0  0  0
   -1.1578   -0.8620    0.3075 C   0  0  0  0  0  0  0  0  0  0  0  0
   -1.2923    0.5825    0.5960 C   0  0  0  0  0  0  0  0  0  0  0  0
   -0.2810    1.4439   -0.0340 C   0  0  0  0  0  0  0  0  0  0  0  0
    0.8403    1.0427   -0.5836 C   0  0  0  0  0  0  0  0  0  0  0  0
    1.2351   -0.3702   -0.6375 C   0  0  0  0  0  0  0  0  0  0  0  0
    2.2723   -0.6950    0.2219 O   0  0  0  0  0  0  0  0  0  0  0  0
   -2.0063   -1.2226   -0.3383 H   0  0  0  0  0  0  0  0  0  0  0  0
   -1.2469   -1.4737    1.2502 H   0  0  0  0  0  0  0  0  0  0  0  0
   -2.3217    0.9252    0.2827 H   0  0  0  0  0  0  0  0  0  0  0  0
   -1.2691    0.7536    1.7069 H   0  0  0  0  0  0  0  0  0  0  0  0
   -0.4821    2.5223   -0.0460 H   0  0  0  0  0  0  0  0  0  0  0  0
    1.5239    1.7737   -1.0258 H   0  0  0  0  0  0  0  0  0  0  0  0
    1.6058   -0.5881   -1.6826 H   0  0  0  0  0  0  0  0  0  0  0  0
    2.2977   -0.1396    1.0324 H   0  0  0  0  0  0  0  0  0  0  0  0
  1  2  2  0
  2  3  1  0
  3  4  1  0
  4  5  1  0
  5  6  2  0
  6  7  1  0
  7  8  1  0
  7  2  1  0
  3  9  1  0
  3 10  1  0
  4 11  1  0
  4 12  1  0
  5 13  1  0
  6 14  1  0
  7 15  1  0
  8 16  1  0
M  END
