
     RDKit          3D

 17 18  0  0  0  0  0  0  0  0999 V2000
    1.5310   -0.2583   -2.0666 O   0  0  0  0  0  0  0  0  0  0  0  0
    1.0459   -0.2399   -0.9658 C   0  0  0  0  0  0  0  0  0  0  0  0
    1.5395   -0.1445    0.3987 C   0  0  0  0  0  0  0  0  0  0  0  0
    1.9316    1.1749    0.7183 O   0  0  0  0  0  0  0  0  0  0  0  0
    0.1922   -0.4690    0.9993 C   0  0  0  0  0  0  0  0  0  0  0  0
   -0.6988   -1.4613    0.3766 C   0  0  0  0  0  0  0  0  0  0  0  0
   -0.3359   -0.3080   -0.4572 C   0  0  0  0  0  0  0  0  0  0  0  0
   -1.1956    0.8947   -0.6328 C   0  0  0  0  0  0  0  0  0  0  0  0
   -2.4620    0.7405   -0.1305 O   0  0  0  0  0  0  0  0  0  0  0  0
    2.2903   -0.8562    0.7441 H   0  0  0  0  0  0  0  0  0  0  0  0
    2.6581    1.4361    0.0920 H   0  0  0  0  0  0  0  0  0  0  0  0
   -0.1822    0.2107    1.7580 H   0  0  0  0  0  0  0  0  0  0  0  0
   -1.7059   -1.5494    0.7787 H   0  0  0  0  0  0  0  0  0  0  0  0
   -0.2353   -2.4369    0.0677 H   0  0  0  0  0  0  0  0  0  0  0  0
   -1.2255    1.1719   -1.6919 H   0  0  0  0  0  0  0  0  0  0  0  0
   -0.6780    1.7498   -0.1087 H   0  0  0  0  0  0  0  0  0  0  0  0
   -2.4694    0.3449    0.7681 H   0  0  0  0  0  0  0  0  0  0  0  0
  1  2  2  0
  2  3  1  0
  3  4  1  0
  3  5  1  0
  5  6  1  0
  6  7  1  0
  7  8  1  0
  8  9  1  0
  7  2  1  0
  7  5  1  0
  3 10  1  0
  4 11  1  0
  5 12  1  0
  6 13  1  0
  6 14  1  0
  8 15  1  0
  8 16  1  0
  9 17  1  0
M  END
