
     RDKit          3D

 17 19  0  0  0  0  0  0  0  0999 V2000
    0.4403    0.7232    2.2305 O   0  0  0  0  0  0  0  0  0  0  0  0
    0.0978    0.1514    1.2255 C   0  0  0  0  0  0  0  0  0  0  0  0
   -1.1629   -0.3785    0.7301 C   0  0  0  0  0  0  0  0  0  0  0  0
   -2.2325    0.1403   -0.0134 C   0  0  0  0  0  0  0  0  0  0  0  0
   -1.0225    0.3192   -0.6877 C   0  0  0  0  0  0  0  0  0  0  0  0
    0.1168   -0.5543   -1.0721 C   0  0  0  0  0  0  0  0  0  0  0  0
    1.0523   -0.1866    0.0970 C   0  0  0  0  0  0  0  0  0  0  0  0
    2.2523    0.4659   -0.0286 C   0  0  0  0  0  0  0  0  0  0  0  0
    2.1664   -0.9054    0.3343 O   0  0  0  0  0  0  0  0  0  0  0  0
   -1.0828   -1.5120    0.7136 H   0  0  0  0  0  0  0  0  0  0  0  0
   -3.0022   -0.5472   -0.4538 H   0  0  0  0  0  0  0  0  0  0  0  0
   -2.7812    1.0333    0.4117 H   0  0  0  0  0  0  0  0  0  0  0  0
   -0.6154    1.3823   -0.6586 H   0  0  0  0  0  0  0  0  0  0  0  0
   -0.1780   -1.6247   -1.0006 H   0  0  0  0  0  0  0  0  0  0  0  0
    0.5747   -0.3436   -2.0398 H   0  0  0  0  0  0  0  0  0  0  0  0
    2.7209    0.6791   -1.0336 H   0  0  0  0  0  0  0  0  0  0  0  0
    2.6559    1.1575    0.7468 H   0  0  0  0  0  0  0  0  0  0  0  0
  1  2  2  0
  2  3  1  0
  3  4  1  0
  4  5  1  0
  5  6  1  0
  6  7  1  0
  7  8  1  0
  8  9  1  0
  7  2  1  0
  5  3  1  0
  9  7  1  0
  3 10  1  0
  4 11  1  0
  4 12  1  0
  5 13  1  0
  6 14  1  0
  6 15  1  0
  8 16  1  0
  8 17  1  0
M  END
