
     RDKit          3D

 12 12  0  0  0  0  0  0  0  0999 V2000
   -1.7428    0.7724   -1.2043 O   0  0  0  0  0  0  0  0  0  0  0  0
   -0.9224    0.4316   -0.3985 C   0  0  0  0  0  0  0  0  0  0  0  0
   -0.9549   -0.9026    0.3067 C   0  0  0  0  0  0  0  0  0  0  0  0
    0.3168   -1.4839    0.0876 O   0  0  0  0  0  0  0  0  0  0  0  0
    1.4592   -0.7502   -0.1836 C   0  0  0  0  0  0  0  0  0  0  0  0
    2.5635   -1.3544   -0.1355 O   0  0  0  0  0  0  0  0  0  0  0  0
    1.3922    0.6018   -0.4970 O   0  0  0  0  0  0  0  0  0  0  0  0
    0.2459    1.2974    0.0101 C   0  0  0  0  0  0  0  0  0  0  0  0
   -1.7427   -1.5254   -0.1139 H   0  0  0  0  0  0  0  0  0  0  0  0
   -1.0761   -0.6708    1.3827 H   0  0  0  0  0  0  0  0  0  0  0  0
    0.3073    1.2774    1.1352 H   0  0  0  0  0  0  0  0  0  0  0  0
    0.1541    2.3066   -0.3895 H   0  0  0  0  0  0  0  0  0  0  0  0
  1  2  2  0
  2  3  1  0
  3  4  1  0
  4  5  1  0
  5  6  2  0
  5  7  1  0
  7  8  1  0
  8  2  1  0
  3  9  1  0
  3 10  1  0
  8 11  1  0
  8 12  1  0
M  END
