
     RDKit          3D

 15 16  0  0  0  0  0  0  0  0999 V2000
    1.4491    2.2713    0.4667 O   0  0  0  0  0  0  0  0  0  0  0  0
    0.7893    1.2885    0.0723 C   0  0  0  0  0  0  0  0  0  0  0  0
    1.4056   -0.0403   -0.2452 C   0  0  0  0  0  0  0  0  0  0  0  0
    0.3183   -1.0778   -0.2641 C   0  0  0  0  0  0  0  0  0  0  0  0
   -0.7238   -0.8856    0.7871 C   0  0  0  0  0  0  0  0  0  0  0  0
   -1.2988   -0.0200   -0.3041 C   0  0  0  0  0  0  0  0  0  0  0  0
   -0.6049   -0.7600   -1.2494 O   0  0  0  0  0  0  0  0  0  0  0  0
   -0.6737    1.3393   -0.1214 C   0  0  0  0  0  0  0  0  0  0  0  0
   -1.3253    2.3934   -0.1331 O   0  0  0  0  0  0  0  0  0  0  0  0
    1.7878    0.0263   -1.3060 H   0  0  0  0  0  0  0  0  0  0  0  0
    2.2554   -0.2804    0.3871 H   0  0  0  0  0  0  0  0  0  0  0  0
    0.6871   -2.1039   -0.3842 H   0  0  0  0  0  0  0  0  0  0  0  0
   -0.4011   -0.3441    1.6826 H   0  0  0  0  0  0  0  0  0  0  0  0
   -1.2881   -1.7868    1.0394 H   0  0  0  0  0  0  0  0  0  0  0  0
   -2.3769   -0.0197   -0.4278 H   0  0  0  0  0  0  0  0  0  0  0  0
  1  2  2  0
  2  3  1  0
  3  4  1  0
  4  5  1  0
  5  6  1  0
  6  7  1  0
  6  8  1  0
  8  9  2  0
  8  2  1  0
  7  4  1  0
  3 10  1  0
  3 11  1  0
  4 12  1  0
  5 13  1  0
  5 14  1  0
  6 15  1  0
M  END
