
     RDKit          3D

 17 18  0  0  0  0  0  0  0  0999 V2000
   -0.0391    2.5087   -0.7214 O   0  0  0  0  0  0  0  0  0  0  0  0
    0.2565    1.4151   -0.2484 C   0  0  0  0  0  0  0  0  0  0  0  0
    1.6131    0.8345   -0.4380 C   0  0  0  0  0  0  0  0  0  0  0  0
    1.7994   -0.4526   -0.1856 C   0  0  0  0  0  0  0  0  0  0  0  0
    0.6971   -1.3562    0.2851 C   0  0  0  0  0  0  0  0  0  0  0  0
   -0.5411   -0.7780   -0.2854 C   0  0  0  0  0  0  0  0  0  0  0  0
   -1.7330   -0.2436    0.2263 C   0  0  0  0  0  0  0  0  0  0  0  0
   -2.6925    0.2680   -0.6796 O   0  0  0  0  0  0  0  0  0  0  0  0
   -0.6243    0.5739    0.5225 C   0  0  0  0  0  0  0  0  0  0  0  0
    2.4484    1.4321   -0.7758 H   0  0  0  0  0  0  0  0  0  0  0  0
    2.7884   -0.8471   -0.3302 H   0  0  0  0  0  0  0  0  0  0  0  0
    0.8932   -2.4009    0.0019 H   0  0  0  0  0  0  0  0  0  0  0  0
    0.7180   -1.2784    1.4039 H   0  0  0  0  0  0  0  0  0  0  0  0
   -0.3977   -0.6720   -1.4061 H   0  0  0  0  0  0  0  0  0  0  0  0
   -2.2652   -0.7721    1.0483 H   0  0  0  0  0  0  0  0  0  0  0  0
   -2.6546    1.2484   -0.6222 H   0  0  0  0  0  0  0  0  0  0  0  0
   -0.2666    0.5203    1.5991 H   0  0  0  0  0  0  0  0  0  0  0  0
  1  2  2  0
  2  3  1  0
  3  4  2  0
  4  5  1  0
  5  6  1  0
  6  7  1  0
  7  8  1  0
  7  9  1  0
  9  2  1  0
  9  6  1  0
  3 10  1  0
  4 11  1  0
  5 12  1  0
  5 13  1  0
  6 14  1  0
  7 15  1  0
  8 16  1  0
  9 17  1  0
M  END
