
     RDKit          3D

 17 18  0  0  0  0  0  0  0  0999 V2000
    3.7753    0.3137    0.0196 O   0  0  0  0  0  0  0  0  0  0  0  0
    2.5394    0.3978    0.0384 C   0  0  0  0  0  0  0  0  0  0  0  0
    1.4323   -0.2219    0.7866 C   0  0  0  0  0  0  0  0  0  0  0  0
    0.7589   -0.0130   -0.5660 C   0  0  0  0  0  0  0  0  0  0  0  0
   -0.7028    0.2595   -0.5171 C   0  0  0  0  0  0  0  0  0  0  0  0
   -1.1901    0.9455   -1.6478 O   0  0  0  0  0  0  0  0  0  0  0  0
   -1.4699    0.3254    0.7390 C   0  0  0  0  0  0  0  0  0  0  0  0
   -1.5355   -0.9391   -0.0705 C   0  0  0  0  0  0  0  0  0  0  0  0
    1.6017    1.1335   -0.6542 O   0  0  0  0  0  0  0  0  0  0  0  0
    1.5488   -1.2636    1.0888 H   0  0  0  0  0  0  0  0  0  0  0  0
    1.0681    0.4894    1.5656 H   0  0  0  0  0  0  0  0  0  0  0  0
    1.1008   -0.7705   -1.2720 H   0  0  0  0  0  0  0  0  0  0  0  0
   -2.1209    1.2423   -1.5286 H   0  0  0  0  0  0  0  0  0  0  0  0
   -0.9472    0.2074    1.7083 H   0  0  0  0  0  0  0  0  0  0  0  0
   -2.4124    0.8984    0.7627 H   0  0  0  0  0  0  0  0  0  0  0  0
   -1.0132   -1.8467    0.2858 H   0  0  0  0  0  0  0  0  0  0  0  0
   -2.4332   -1.1581   -0.6921 H   0  0  0  0  0  0  0  0  0  0  0  0
  1  2  2  0
  2  3  1  0
  3  4  1  0
  4  5  1  0
  5  6  1  0
  5  7  1  0
  7  8  1  0
  4  9  1  0
  9  2  1  0
  8  5  1  0
  3 10  1  0
  3 11  1  0
  4 12  1  0
  6 13  1  0
  7 14  1  0
  7 15  1  0
  8 16  1  0
  8 17  1  0
M  END
