
     RDKit          3D

 17 19  0  0  0  0  0  0  0  0999 V2000
   -1.5645   -2.2714    0.9364 O   0  0  0  0  0  0  0  0  0  0  0  0
   -1.0060   -1.1709    0.7539 C   0  0  0  0  0  0  0  0  0  0  0  0
   -0.3680   -0.3115    1.6350 O   0  0  0  0  0  0  0  0  0  0  0  0
   -0.0174    0.9013    0.9470 C   0  0  0  0  0  0  0  0  0  0  0  0
   -1.1714    0.9378   -0.0747 C   0  0  0  0  0  0  0  0  0  0  0  0
   -0.9057   -0.5025   -0.5674 C   0  0  0  0  0  0  0  0  0  0  0  0
    0.5268   -0.3487   -1.0010 C   0  0  0  0  0  0  0  0  0  0  0  0
    1.6614   -0.6813   -0.1308 C   0  0  0  0  0  0  0  0  0  0  0  0
    1.1226    0.6730    0.0205 C   0  0  0  0  0  0  0  0  0  0  0  0
    0.0188    1.7653    1.5775 H   0  0  0  0  0  0  0  0  0  0  0  0
   -0.9971    1.6674   -0.8610 H   0  0  0  0  0  0  0  0  0  0  0  0
   -2.1432    0.9602    0.4041 H   0  0  0  0  0  0  0  0  0  0  0  0
   -1.5970   -0.8277   -1.3149 H   0  0  0  0  0  0  0  0  0  0  0  0
    0.6838   -0.1385   -2.0545 H   0  0  0  0  0  0  0  0  0  0  0  0
    2.6291   -0.8840   -0.6315 H   0  0  0  0  0  0  0  0  0  0  0  0
    1.5326   -1.3348    0.7762 H   0  0  0  0  0  0  0  0  0  0  0  0
    1.5952    1.5662   -0.4149 H   0  0  0  0  0  0  0  0  0  0  0  0
  1  2  2  0
  2  3  1  0
  3  4  1  0
  4  5  1  0
  5  6  1  0
  6  7  1  0
  7  8  1  0
  8  9  1  0
  6  2  1  0
  9  7  1  0
  9  4  1  0
  4 10  1  0
  5 11  1  0
  5 12  1  0
  6 13  1  0
  7 14  1  0
  8 15  1  0
  8 16  1  0
  9 17  1  0
M  END
