
     RDKit          3D

 15 16  0  0  0  0  0  0  0  0999 V2000
   -2.2199    2.1010    0.6959 O   0  0  0  0  0  0  0  0  0  0  0  0
   -1.3757    1.3080    0.1744 C   0  0  0  0  0  0  0  0  0  0  0  0
   -0.1272    1.4191   -0.4159 O   0  0  0  0  0  0  0  0  0  0  0  0
   -0.1668    0.0567   -0.7823 C   0  0  0  0  0  0  0  0  0  0  0  0
    1.0321   -0.6824   -0.3018 C   0  0  0  0  0  0  0  0  0  0  0  0
    2.1067    0.1631    0.3448 C   0  0  0  0  0  0  0  0  0  0  0  0
    1.3331   -0.7618    1.0398 O   0  0  0  0  0  0  0  0  0  0  0  0
   -1.4392   -0.1693   -0.0032 C   0  0  0  0  0  0  0  0  0  0  0  0
   -1.2919   -0.8161    1.2002 O   0  0  0  0  0  0  0  0  0  0  0  0
   -0.2839   -0.0318   -1.8866 H   0  0  0  0  0  0  0  0  0  0  0  0
    1.3804   -1.5424   -0.9450 H   0  0  0  0  0  0  0  0  0  0  0  0
    3.1529   -0.0610    0.1002 H   0  0  0  0  0  0  0  0  0  0  0  0
    1.9171    1.2490    0.4920 H   0  0  0  0  0  0  0  0  0  0  0  0
   -2.2831   -0.5291   -0.6229 H   0  0  0  0  0  0  0  0  0  0  0  0
   -1.7344   -1.7031    1.1181 H   0  0  0  0  0  0  0  0  0  0  0  0
  1  2  2  0
  2  3  1  0
  3  4  1  0
  4  5  1  0
  5  6  1  0
  6  7  1  0
  4  8  1  0
  8  9  1  0
  8  2  1  0
  7  5  1  0
  4 10  1  0
  5 11  1  0
  6 12  1  0
  6 13  1  0
  8 14  1  0
  9 15  1  0
M  END
