
     RDKit          3D

 19 20  0  0  0  0  0  0  0  0999 V2000
    1.8929   -2.2083   -0.5416 O   0  0  0  0  0  0  0  0  0  0  0  0
    1.5196   -1.0193   -0.3831 C   0  0  0  0  0  0  0  0  0  0  0  0
    2.2113    0.1072    0.2106 C   0  0  0  0  0  0  0  0  0  0  0  0
    1.4805    1.1973    0.2501 C   0  0  0  0  0  0  0  0  0  0  0  0
    0.1737    0.9003   -0.3361 C   0  0  0  0  0  0  0  0  0  0  0  0
   -0.8949    0.9163    0.7559 C   0  0  0  0  0  0  0  0  0  0  0  0
   -1.8689   -0.0836    0.2091 C   0  0  0  0  0  0  0  0  0  0  0  0
   -0.9395   -1.2465   -0.1402 C   0  0  0  0  0  0  0  0  0  0  0  0
    0.1999   -0.5173   -0.8093 C   0  0  0  0  0  0  0  0  0  0  0  0
    3.2237    0.0652    0.5851 H   0  0  0  0  0  0  0  0  0  0  0  0
    1.7614    2.1638    0.6400 H   0  0  0  0  0  0  0  0  0  0  0  0
   -0.0952    1.5666   -1.1770 H   0  0  0  0  0  0  0  0  0  0  0  0
   -1.3078    1.9359    0.8356 H   0  0  0  0  0  0  0  0  0  0  0  0
   -0.4500    0.5508    1.6940 H   0  0  0  0  0  0  0  0  0  0  0  0
   -2.2477    0.3029   -0.7519 H   0  0  0  0  0  0  0  0  0  0  0  0
   -2.6569   -0.3732    0.9076 H   0  0  0  0  0  0  0  0  0  0  0  0
   -1.4090   -1.9467   -0.8503 H   0  0  0  0  0  0  0  0  0  0  0  0
   -0.6551   -1.7192    0.8156 H   0  0  0  0  0  0  0  0  0  0  0  0
    0.0620   -0.5920   -1.9141 H   0  0  0  0  0  0  0  0  0  0  0  0
  1  2  2  0
  2  3  1  0
  3  4  2  0
  4  5  1  0
  5  6  1  0
  6  7  1  0
  7  8  1  0
  8  9  1  0
  9  2  1  0
  9  5  1  0
  3 10  1  0
  4 11  1  0
  5 12  1  0
  6 13  1  0
  6 14  1  0
  7 15  1  0
  7 16  1  0
  8 17  1  0
  8 18  1  0
  9 19  1  0
M  END
