
     RDKit          3D

 19 19  0  0  0  0  0  0  0  0999 V2000
   -0.8026    2.9100    0.6801 O   0  0  0  0  0  0  0  0  0  0  0  0
   -0.3699    1.7867    0.3148 C   0  0  0  0  0  0  0  0  0  0  0  0
   -1.4282    1.0334   -0.4044 C   0  0  0  0  0  0  0  0  0  0  0  0
   -1.4899   -0.3900    0.1250 C   0  0  0  0  0  0  0  0  0  0  0  0
   -0.6006   -1.3144   -0.6899 C   0  0  0  0  0  0  0  0  0  0  0  0
    0.6333   -1.5452    0.1286 C   0  0  0  0  0  0  0  0  0  0  0  0
    1.6437   -0.7749    0.4884 C   0  0  0  0  0  0  0  0  0  0  0  0
    1.9912    0.6486    0.2373 C   0  0  0  0  0  0  0  0  0  0  0  0
    0.9288    1.4884    0.6340 O   0  0  0  0  0  0  0  0  0  0  0  0
   -2.4321    1.5252   -0.2754 H   0  0  0  0  0  0  0  0  0  0  0  0
   -1.2031    0.9552   -1.5001 H   0  0  0  0  0  0  0  0  0  0  0  0
   -1.2047   -0.4086    1.2049 H   0  0  0  0  0  0  0  0  0  0  0  0
   -2.5201   -0.7929    0.0512 H   0  0  0  0  0  0  0  0  0  0  0  0
   -1.0908   -2.2524   -0.9655 H   0  0  0  0  0  0  0  0  0  0  0  0
   -0.2461   -0.7707   -1.6123 H   0  0  0  0  0  0  0  0  0  0  0  0
    0.7268   -2.5722    0.5172 H   0  0  0  0  0  0  0  0  0  0  0  0
    2.3752   -1.3127    1.1033 H   0  0  0  0  0  0  0  0  0  0  0  0
    2.1979    0.8412   -0.8522 H   0  0  0  0  0  0  0  0  0  0  0  0
    2.8913    0.9453    0.8151 H   0  0  0  0  0  0  0  0  0  0  0  0
  1  2  2  0
  2  3  1  0
  3  4  1  0
  4  5  1  0
  5  6  1  0
  6  7  2  3
  7  8  1  0
  8  9  1  0
  9  2  1  0
  3 10  1  0
  3 11  1  0
  4 12  1  0
  4 13  1  0
  5 14  1  0
  5 15  1  0
  6 16  1  0
  7 17  1  0
  8 18  1  0
  8 19  1  0
M  END
