
     RDKit          3D

 17 18  0  0  0  0  0  0  0  0999 V2000
    0.5263    2.6325   -0.5348 O   0  0  0  0  0  0  0  0  0  0  0  0
    0.8717    1.4227   -0.5702 C   0  0  0  0  0  0  0  0  0  0  0  0
    2.1365    0.8585   -0.6804 O   0  0  0  0  0  0  0  0  0  0  0  0
    2.1147   -0.4889   -0.2125 C   0  0  0  0  0  0  0  0  0  0  0  0
    0.7439   -0.6519    0.4292 C   0  0  0  0  0  0  0  0  0  0  0  0
   -0.0639    0.2695   -0.4966 C   0  0  0  0  0  0  0  0  0  0  0  0
   -1.3308    0.6045    0.2381 C   0  0  0  0  0  0  0  0  0  0  0  0
   -2.3050   -0.5463    0.3313 C   0  0  0  0  0  0  0  0  0  0  0  0
   -2.5367    0.6572   -0.4134 O   0  0  0  0  0  0  0  0  0  0  0  0
    2.9160   -0.5959    0.5196 H   0  0  0  0  0  0  0  0  0  0  0  0
    2.1965   -1.1948   -1.0709 H   0  0  0  0  0  0  0  0  0  0  0  0
    0.7635   -0.1461    1.4048 H   0  0  0  0  0  0  0  0  0  0  0  0
    0.3773   -1.6685    0.4264 H   0  0  0  0  0  0  0  0  0  0  0  0
   -0.2287   -0.1899   -1.4750 H   0  0  0  0  0  0  0  0  0  0  0  0
   -1.1632    1.1564    1.1888 H   0  0  0  0  0  0  0  0  0  0  0  0
   -2.1458   -1.4366   -0.3353 H   0  0  0  0  0  0  0  0  0  0  0  0
   -2.8724   -0.6824    1.2507 H   0  0  0  0  0  0  0  0  0  0  0  0
  1  2  2  0
  2  3  1  0
  3  4  1  0
  4  5  1  0
  5  6  1  0
  6  7  1  0
  7  8  1  0
  8  9  1  0
  6  2  1  0
  9  7  1  0
  4 10  1  0
  4 11  1  0
  5 12  1  0
  5 13  1  0
  6 14  1  0
  7 15  1  0
  8 16  1  0
  8 17  1  0
M  END
