
     RDKit          3D

 15 16  0  0  0  0  0  0  0  0999 V2000
   -0.0273    1.7837   -1.7545 O   0  0  0  0  0  0  0  0  0  0  0  0
    0.2880    1.2318   -0.7495 C   0  0  0  0  0  0  0  0  0  0  0  0
    1.3960    1.0157    0.1599 C   0  0  0  0  0  0  0  0  0  0  0  0
    0.4787    1.1868    1.1873 O   0  0  0  0  0  0  0  0  0  0  0  0
   -0.2322    0.3765    0.2794 C   0  0  0  0  0  0  0  0  0  0  0  0
   -1.5270   -0.0664    0.4825 C   0  0  0  0  0  0  0  0  0  0  0  0
   -2.0045   -0.8442   -0.5473 O   0  0  0  0  0  0  0  0  0  0  0  0
    1.0063   -0.4278    0.1928 C   0  0  0  0  0  0  0  0  0  0  0  0
    1.2296   -1.1619   -0.9445 O   0  0  0  0  0  0  0  0  0  0  0  0
    2.3297    1.3928    0.1281 H   0  0  0  0  0  0  0  0  0  0  0  0
   -1.6597   -0.6421    1.4195 H   0  0  0  0  0  0  0  0  0  0  0  0
   -2.2494    0.7974    0.5822 H   0  0  0  0  0  0  0  0  0  0  0  0
   -2.1293   -1.7957   -0.2867 H   0  0  0  0  0  0  0  0  0  0  0  0
    1.2610   -0.9139    1.1335 H   0  0  0  0  0  0  0  0  0  0  0  0
    1.8402   -1.9327   -0.7398 H   0  0  0  0  0  0  0  0  0  0  0  0
  1  2  2  0
  2  3  1  0
  3  4  1  0
  4  5  1  0
  5  6  1  0
  6  7  1  0
  5  8  1  0
  8  9  1  0
  5  2  1  0
  8  3  1  0
  3 10  1  0
  6 11  1  0
  6 12  1  0
  7 13  1  0
  8 14  1  0
  9 15  1  0
M  END
