
     RDKit          3D

 17 17  0  0  0  0  0  0  0  0999 V2000
    0.6846    2.4975   -0.2390 O   0  0  0  0  0  0  0  0  0  0  0  0
    0.4365    1.3171   -0.0052 C   0  0  0  0  0  0  0  0  0  0  0  0
   -0.7915    0.9823    0.7121 C   0  0  0  0  0  0  0  0  0  0  0  0
   -1.3199   -0.3899    0.4926 C   0  0  0  0  0  0  0  0  0  0  0  0
   -0.7158   -1.1966   -0.5723 C   0  0  0  0  0  0  0  0  0  0  0  0
    0.6599   -0.8351   -0.9678 C   0  0  0  0  0  0  0  0  0  0  0  0
    1.2006   -1.5787   -1.7846 O   0  0  0  0  0  0  0  0  0  0  0  0
    1.4228    0.3133   -0.4796 C   0  0  0  0  0  0  0  0  0  0  0  0
    2.2916   -0.0911    0.5155 O   0  0  0  0  0  0  0  0  0  0  0  0
   -1.5965    1.7177    0.4320 H   0  0  0  0  0  0  0  0  0  0  0  0
   -0.6056    1.1968    1.8025 H   0  0  0  0  0  0  0  0  0  0  0  0
   -1.2214   -0.9475    1.4729 H   0  0  0  0  0  0  0  0  0  0  0  0
   -2.4402   -0.3706    0.3317 H   0  0  0  0  0  0  0  0  0  0  0  0
   -0.6716   -2.2941   -0.2989 H   0  0  0  0  0  0  0  0  0  0  0  0
   -1.3225   -1.1907   -1.5254 H   0  0  0  0  0  0  0  0  0  0  0  0
    2.0377    0.7020   -1.3146 H   0  0  0  0  0  0  0  0  0  0  0  0
    1.9513    0.1676    1.4281 H   0  0  0  0  0  0  0  0  0  0  0  0
  1  2  2  0
  2  3  1  0
  3  4  1  0
  4  5  1  0
  5  6  1  0
  6  7  2  0
  6  8  1  0
  8  9  1  0
  8  2  1  0
  3 10  1  0
  3 11  1  0
  4 12  1  0
  4 13  1  0
  5 14  1  0
  5 15  1  0
  8 16  1  0
  9 17  1  0
M  END
