
     RDKit          3D

 19 20  0  0  0  0  0  0  0  0999 V2000
    4.1382    0.4875    0.2782 O   0  0  0  0  0  0  0  0  0  0  0  0
    2.8963    0.3566    0.1282 C   0  0  0  0  0  0  0  0  0  0  0  0
    1.9848   -0.6971   -0.3273 C   0  0  0  0  0  0  0  0  0  0  0  0
    0.9365    0.3817   -0.3327 C   0  0  0  0  0  0  0  0  0  0  0  0
   -0.3000    0.0068    0.4332 C   0  0  0  0  0  0  0  0  0  0  0  0
   -1.3844    1.0604    0.4578 C   0  0  0  0  0  0  0  0  0  0  0  0
   -2.3587   -0.1140    0.2822 C   0  0  0  0  0  0  0  0  0  0  0  0
   -1.2349   -0.7863   -0.4852 C   0  0  0  0  0  0  0  0  0  0  0  0
    1.8382    1.2260    0.3542 O   0  0  0  0  0  0  0  0  0  0  0  0
    1.7624   -1.4997    0.4062 H   0  0  0  0  0  0  0  0  0  0  0  0
    2.2360   -1.1274   -1.3110 H   0  0  0  0  0  0  0  0  0  0  0  0
    0.7327    0.6940   -1.3746 H   0  0  0  0  0  0  0  0  0  0  0  0
   -0.1642   -0.4490    1.4083 H   0  0  0  0  0  0  0  0  0  0  0  0
   -1.3764    1.7116   -0.4195 H   0  0  0  0  0  0  0  0  0  0  0  0
   -1.5785    1.5219    1.4346 H   0  0  0  0  0  0  0  0  0  0  0  0
   -3.2523    0.1231   -0.3108 H   0  0  0  0  0  0  0  0  0  0  0  0
   -2.5903   -0.6308    1.2141 H   0  0  0  0  0  0  0  0  0  0  0  0
   -1.1270   -1.8651   -0.3307 H   0  0  0  0  0  0  0  0  0  0  0  0
   -1.1585   -0.4001   -1.5053 H   0  0  0  0  0  0  0  0  0  0  0  0
  1  2  2  0
  2  3  1  0
  3  4  1  0
  4  5  1  0
  5  6  1  0
  6  7  1  0
  7  8  1  0
  4  9  1  0
  9  2  1  0
  8  5  1  0
  3 10  1  0
  3 11  1  0
  4 12  1  0
  5 13  1  0
  6 14  1  0
  6 15  1  0
  7 16  1  0
  7 17  1  0
  8 18  1  0
  8 19  1  0
M  END
