
     RDKit          3D

 14 15  0  0  0  0  0  0  0  0999 V2000
   -0.6156    2.6003    0.4656 O   0  0  0  0  0  0  0  0  0  0  0  0
   -0.5222    1.3576    0.4457 C   0  0  0  0  0  0  0  0  0  0  0  0
   -0.9472    0.4283    1.3827 O   0  0  0  0  0  0  0  0  0  0  0  0
   -0.4410   -0.8426    0.9378 C   0  0  0  0  0  0  0  0  0  0  0  0
   -0.7762   -0.6775   -0.5568 C   0  0  0  0  0  0  0  0  0  0  0  0
    0.1028    0.5870   -0.6575 C   0  0  0  0  0  0  0  0  0  0  0  0
    1.3703   -0.0339   -0.1338 C   0  0  0  0  0  0  0  0  0  0  0  0
    0.9251   -0.7681    0.9731 O   0  0  0  0  0  0  0  0  0  0  0  0
   -0.9056   -1.6896    1.3907 H   0  0  0  0  0  0  0  0  0  0  0  0
   -0.3859   -1.4912   -1.1559 H   0  0  0  0  0  0  0  0  0  0  0  0
   -1.8046   -0.3842   -0.7186 H   0  0  0  0  0  0  0  0  0  0  0  0
    0.1277    1.0335   -1.6135 H   0  0  0  0  0  0  0  0  0  0  0  0
    2.1466    0.6886    0.1122 H   0  0  0  0  0  0  0  0  0  0  0  0
    1.7257   -0.8081   -0.8715 H   0  0  0  0  0  0  0  0  0  0  0  0
  1  2  2  0
  2  3  1  0
  3  4  1  0
  4  5  1  0
  5  6  1  0
  6  7  1  0
  7  8  1  0
  6  2  1  0
  8  4  1  0
  4  9  1  0
  5 10  1  0
  5 11  1  0
  6 12  1  0
  7 13  1  0
  7 14  1  0
M  END
