
     RDKit          3D

 17 19  0  0  0  0  0  0  0  0999 V2000
   -2.3610   -1.8167    0.0336 O   0  0  0  0  0  0  0  0  0  0  0  0
   -1.4890   -0.9927    0.0645 C   0  0  0  0  0  0  0  0  0  0  0  0
   -1.5159    0.4159    0.5490 C   0  0  0  0  0  0  0  0  0  0  0  0
   -0.0514    0.7244    0.3567 C   0  0  0  0  0  0  0  0  0  0  0  0
    0.4377    1.9098    0.7369 O   0  0  0  0  0  0  0  0  0  0  0  0
    0.3095    0.1488   -0.9799 C   0  0  0  0  0  0  0  0  0  0  0  0
    1.6601   -0.1108   -0.3732 C   0  0  0  0  0  0  0  0  0  0  0  0
    0.6938   -0.5389    0.7017 C   0  0  0  0  0  0  0  0  0  0  0  0
   -0.0996   -1.1662   -0.3898 C   0  0  0  0  0  0  0  0  0  0  0  0
   -2.0965    1.0784   -0.1454 H   0  0  0  0  0  0  0  0  0  0  0  0
   -1.8565    0.5015    1.5837 H   0  0  0  0  0  0  0  0  0  0  0  0
    0.7051    2.4513   -0.0487 H   0  0  0  0  0  0  0  0  0  0  0  0
    0.1046    0.5130   -1.8848 H   0  0  0  0  0  0  0  0  0  0  0  0
    2.2437    0.7713   -0.0872 H   0  0  0  0  0  0  0  0  0  0  0  0
    2.1903   -0.9272   -0.8863 H   0  0  0  0  0  0  0  0  0  0  0  0
    0.9127   -0.8852    1.6115 H   0  0  0  0  0  0  0  0  0  0  0  0
    0.2124   -2.0768   -0.8423 H   0  0  0  0  0  0  0  0  0  0  0  0
  1  2  2  0
  2  3  1  0
  3  4  1  0
  4  5  1  0
  4  6  1  0
  6  7  1  0
  7  8  1  0
  8  9  1  0
  9  2  1  0
  8  4  1  0
  9  6  1  0
  3 10  1  0
  3 11  1  0
  5 12  1  0
  6 13  1  0
  7 14  1  0
  7 15  1  0
  8 16  1  0
  9 17  1  0
M  END
