
     RDKit          3D

 17 18  0  0  0  0  0  0  0  0999 V2000
   -3.2214   -0.5889    0.2170 O   0  0  0  0  0  0  0  0  0  0  0  0
   -2.0201   -0.5436    0.1267 C   0  0  0  0  0  0  0  0  0  0  0  0
   -1.0265   -0.9392   -0.9040 C   0  0  0  0  0  0  0  0  0  0  0  0
   -0.0255   -0.1276   -0.2102 C   0  0  0  0  0  0  0  0  0  0  0  0
   -0.9053   -0.0735    0.9877 C   0  0  0  0  0  0  0  0  0  0  0  0
    0.6362    1.0613   -0.7170 C   0  0  0  0  0  0  0  0  0  0  0  0
    0.6490    2.1605    0.1426 O   0  0  0  0  0  0  0  0  0  0  0  0
    1.3943   -0.2001   -0.2536 C   0  0  0  0  0  0  0  0  0  0  0  0
    2.2563    0.0420    0.7864 O   0  0  0  0  0  0  0  0  0  0  0  0
   -0.8403   -2.0476   -0.8249 H   0  0  0  0  0  0  0  0  0  0  0  0
   -1.2374   -0.6063   -1.9282 H   0  0  0  0  0  0  0  0  0  0  0  0
   -1.0237    0.9731    1.3769 H   0  0  0  0  0  0  0  0  0  0  0  0
   -0.6862   -0.7648    1.8184 H   0  0  0  0  0  0  0  0  0  0  0  0
    0.6521    1.2873   -1.7968 H   0  0  0  0  0  0  0  0  0  0  0  0
    0.9108    1.9146    1.0586 H   0  0  0  0  0  0  0  0  0  0  0  0
    1.8745   -0.7838   -1.0931 H   0  0  0  0  0  0  0  0  0  0  0  0
    2.6132   -0.7635    1.2136 H   0  0  0  0  0  0  0  0  0  0  0  0
  1  2  2  0
  2  3  1  0
  3  4  1  0
  4  5  1  0
  4  6  1  0
  6  7  1  0
  6  8  1  0
  8  9  1  0
  5  2  1  0
  8  4  1  0
  3 10  1  0
  3 11  1  0
  5 12  1  0
  5 13  1  0
  6 14  1  0
  7 15  1  0
  8 16  1  0
  9 17  1  0
M  END
