
     RDKit          3D

 16 17  0  0  0  0  0  0  0  0999 V2000
   -3.0232    0.9068    0.6861 O   0  0  0  0  0  0  0  0  0  0  0  0
   -1.8964    0.6022    0.2643 C   0  0  0  0  0  0  0  0  0  0  0  0
   -0.8004    1.5056   -0.0530 C   0  0  0  0  0  0  0  0  0  0  0  0
    0.3540    0.8560    0.0178 C   0  0  0  0  0  0  0  0  0  0  0  0
    1.7898    0.4046    0.0152 C   0  0  0  0  0  0  0  0  0  0  0  0
    1.2073   -0.9346   -0.4794 C   0  0  0  0  0  0  0  0  0  0  0  0
    0.0754   -0.5723    0.4287 C   0  0  0  0  0  0  0  0  0  0  0  0
   -1.3196   -0.7549   -0.0446 C   0  0  0  0  0  0  0  0  0  0  0  0
   -0.8897    2.5686   -0.3144 H   0  0  0  0  0  0  0  0  0  0  0  0
    2.1365    0.3511    1.0509 H   0  0  0  0  0  0  0  0  0  0  0  0
    2.4259    0.9081   -0.7190 H   0  0  0  0  0  0  0  0  0  0  0  0
    1.0155   -0.9008   -1.5479 H   0  0  0  0  0  0  0  0  0  0  0  0
    1.8800   -1.7376   -0.1255 H   0  0  0  0  0  0  0  0  0  0  0  0
    0.2902   -0.7865    1.4829 H   0  0  0  0  0  0  0  0  0  0  0  0
   -1.8792   -1.5531    0.4713 H   0  0  0  0  0  0  0  0  0  0  0  0
   -1.3661   -0.8630   -1.1335 H   0  0  0  0  0  0  0  0  0  0  0  0
  1  2  2  0
  2  3  1  0
  3  4  2  0
  4  5  1  0
  5  6  1  0
  6  7  1  0
  7  8  1  0
  8  2  1  0
  7  4  1  0
  3  9  1  0
  5 10  1  0
  5 11  1  0
  6 12  1  0
  6 13  1  0
  7 14  1  0
  8 15  1  0
  8 16  1  0
M  END
