
     RDKit          3D

 17 17  0  0  0  0  0  0  0  0999 V2000
    1.3718   -2.2774   -0.4174 O   0  0  0  0  0  0  0  0  0  0  0  0
    0.6779   -1.3399   -0.0954 C   0  0  0  0  0  0  0  0  0  0  0  0
   -0.7791   -1.3794    0.1446 C   0  0  0  0  0  0  0  0  0  0  0  0
   -1.2657    0.0181   -0.1050 C   0  0  0  0  0  0  0  0  0  0  0  0
   -1.9966    0.4182    1.0264 O   0  0  0  0  0  0  0  0  0  0  0  0
   -0.0800    0.9092   -0.2547 C   0  0  0  0  0  0  0  0  0  0  0  0
    0.0442    1.4713   -1.5135 O   0  0  0  0  0  0  0  0  0  0  0  0
    1.0951    0.0697    0.1394 C   0  0  0  0  0  0  0  0  0  0  0  0
    2.2555    0.4050   -0.5443 O   0  0  0  0  0  0  0  0  0  0  0  0
   -1.2861   -2.1196   -0.5270 H   0  0  0  0  0  0  0  0  0  0  0  0
   -0.9564   -1.7242    1.1928 H   0  0  0  0  0  0  0  0  0  0  0  0
   -1.9358   -0.0038   -0.9863 H   0  0  0  0  0  0  0  0  0  0  0  0
   -1.3777    0.9265    1.6244 H   0  0  0  0  0  0  0  0  0  0  0  0
   -0.1415    1.7739    0.4667 H   0  0  0  0  0  0  0  0  0  0  0  0
    0.1400    2.4643   -1.4943 H   0  0  0  0  0  0  0  0  0  0  0  0
    1.2235    0.1618    1.2569 H   0  0  0  0  0  0  0  0  0  0  0  0
    3.0110    0.2261    0.0867 H   0  0  0  0  0  0  0  0  0  0  0  0
  1  2  2  0
  2  3  1  0
  3  4  1  0
  4  5  1  0
  4  6  1  0
  6  7  1  0
  6  8  1  0
  8  9  1  0
  8  2  1  0
  3 10  1  0
  3 11  1  0
  4 12  1  0
  5 13  1  0
  6 14  1  0
  7 15  1  0
  8 16  1  0
  9 17  1  0
M  END
