
     RDKit          3D

 19 20  0  0  0  0  0  0  0  0999 V2000
    2.2873   -0.6734    1.8829 O   0  0  0  0  0  0  0  0  0  0  0  0
    1.3753   -0.6568    0.9914 C   0  0  0  0  0  0  0  0  0  0  0  0
    1.7413   -0.0318   -0.3267 C   0  0  0  0  0  0  0  0  0  0  0  0
    0.7369    1.0157   -0.6326 C   0  0  0  0  0  0  0  0  0  0  0  0
   -0.6748    0.6269   -0.6140 C   0  0  0  0  0  0  0  0  0  0  0  0
   -0.9902   -0.8103   -0.7961 C   0  0  0  0  0  0  0  0  0  0  0  0
   -1.1311   -0.9266    0.7158 C   0  0  0  0  0  0  0  0  0  0  0  0
   -1.3191    0.5708    0.7464 C   0  0  0  0  0  0  0  0  0  0  0  0
    0.1474   -1.2049    1.3046 O   0  0  0  0  0  0  0  0  0  0  0  0
    2.7405    0.4316   -0.2837 H   0  0  0  0  0  0  0  0  0  0  0  0
    1.7695   -0.8588   -1.0523 H   0  0  0  0  0  0  0  0  0  0  0  0
    0.8902    1.8531    0.1067 H   0  0  0  0  0  0  0  0  0  0  0  0
    0.9826    1.4302   -1.6535 H   0  0  0  0  0  0  0  0  0  0  0  0
   -1.2964    1.2973   -1.2735 H   0  0  0  0  0  0  0  0  0  0  0  0
   -1.9996   -0.9419   -1.2541 H   0  0  0  0  0  0  0  0  0  0  0  0
   -0.2191   -1.4483   -1.2458 H   0  0  0  0  0  0  0  0  0  0  0  0
   -1.9377   -1.5467    1.0851 H   0  0  0  0  0  0  0  0  0  0  0  0
   -0.7034    1.0696    1.5188 H   0  0  0  0  0  0  0  0  0  0  0  0
   -2.3996    0.8042    0.7808 H   0  0  0  0  0  0  0  0  0  0  0  0
  1  2  2  0
  2  3  1  0
  3  4  1  0
  4  5  1  0
  5  6  1  0
  6  7  1  0
  7  8  1  0
  7  9  1  0
  9  2  1  0
  8  5  1  0
  3 10  1  0
  3 11  1  0
  4 12  1  0
  4 13  1  0
  5 14  1  0
  6 15  1  0
  6 16  1  0
  7 17  1  0
  8 18  1  0
  8 19  1  0
M  END
