
     RDKit          3D

 19 20  0  0  0  0  0  0  0  0999 V2000
   -2.3900    1.6103    0.5672 O   0  0  0  0  0  0  0  0  0  0  0  0
   -1.6015    0.8370    0.1013 C   0  0  0  0  0  0  0  0  0  0  0  0
   -1.8390   -0.5698   -0.2659 C   0  0  0  0  0  0  0  0  0  0  0  0
   -0.5812   -1.2244    0.2976 C   0  0  0  0  0  0  0  0  0  0  0  0
    0.4753   -0.2157   -0.0239 C   0  0  0  0  0  0  0  0  0  0  0  0
    1.7538   -0.3168    0.7426 C   0  0  0  0  0  0  0  0  0  0  0  0
    1.7105   -0.5939   -0.7323 C   0  0  0  0  0  0  0  0  0  0  0  0
   -0.1909    1.1151   -0.2179 C   0  0  0  0  0  0  0  0  0  0  0  0
    0.3659    2.1190    0.5521 O   0  0  0  0  0  0  0  0  0  0  0  0
   -1.8567   -0.6880   -1.3842 H   0  0  0  0  0  0  0  0  0  0  0  0
   -2.7555   -1.0021    0.1720 H   0  0  0  0  0  0  0  0  0  0  0  0
   -0.4192   -2.2086   -0.1394 H   0  0  0  0  0  0  0  0  0  0  0  0
   -0.7304   -1.2600    1.4066 H   0  0  0  0  0  0  0  0  0  0  0  0
    1.9064   -1.1953    1.3969 H   0  0  0  0  0  0  0  0  0  0  0  0
    2.2506    0.5986    1.1132 H   0  0  0  0  0  0  0  0  0  0  0  0
    1.7913   -1.6478   -1.0712 H   0  0  0  0  0  0  0  0  0  0  0  0
    2.1901    0.1887   -1.3757 H   0  0  0  0  0  0  0  0  0  0  0  0
   -0.1561    1.4632   -1.2789 H   0  0  0  0  0  0  0  0  0  0  0  0
    0.0764    2.9906    0.1398 H   0  0  0  0  0  0  0  0  0  0  0  0
  1  2  2  0
  2  3  1  0
  3  4  1  0
  4  5  1  0
  5  6  1  0
  6  7  1  0
  5  8  1  0
  8  9  1  0
  8  2  1  0
  7  5  1  0
  3 10  1  0
  3 11  1  0
  4 12  1  0
  4 13  1  0
  6 14  1  0
  6 15  1  0
  7 16  1  0
  7 17  1  0
  8 18  1  0
  9 19  1  0
M  END
