
     RDKit          3D

 15 16  0  0  0  0  0  0  0  0999 V2000
   -1.5897    1.9672   -1.1446 O   0  0  0  0  0  0  0  0  0  0  0  0
   -1.4844    0.8615   -0.5978 C   0  0  0  0  0  0  0  0  0  0  0  0
   -2.3078    0.0879    0.1879 O   0  0  0  0  0  0  0  0  0  0  0  0
   -1.1236   -0.3849    0.8430 C   0  0  0  0  0  0  0  0  0  0  0  0
   -0.4559   -0.1860   -0.4971 C   0  0  0  0  0  0  0  0  0  0  0  0
   -0.6684   -1.2485   -1.3629 O   0  0  0  0  0  0  0  0  0  0  0  0
    0.9694    0.3045   -0.4332 C   0  0  0  0  0  0  0  0  0  0  0  0
    1.8463    0.0330    0.6625 C   0  0  0  0  0  0  0  0  0  0  0  0
    1.2297    1.3907    0.4411 O   0  0  0  0  0  0  0  0  0  0  0  0
   -0.8018    0.3884    1.5668 H   0  0  0  0  0  0  0  0  0  0  0  0
   -1.1797   -1.4035    1.2192 H   0  0  0  0  0  0  0  0  0  0  0  0
   -0.3326   -2.0831   -0.9037 H   0  0  0  0  0  0  0  0  0  0  0  0
    1.4076    0.4925   -1.4358 H   0  0  0  0  0  0  0  0  0  0  0  0
    1.5446   -0.2912    1.6519 H   0  0  0  0  0  0  0  0  0  0  0  0
    2.9463    0.0714    0.4939 H   0  0  0  0  0  0  0  0  0  0  0  0
  1  2  2  0
  2  3  1  0
  3  4  1  0
  4  5  1  0
  5  6  1  0
  5  7  1  0
  7  8  1  0
  8  9  1  0
  5  2  1  0
  9  7  1  0
  4 10  1  0
  4 11  1  0
  6 12  1  0
  7 13  1  0
  8 14  1  0
  8 15  1  0
M  END
