
     RDKit          3D

 16 17  0  0  0  0  0  0  0  0999 V2000
    0.5641    1.8207    1.3112 O   0  0  0  0  0  0  0  0  0  0  0  0
    1.0509    0.8783    0.7134 C   0  0  0  0  0  0  0  0  0  0  0  0
    2.4110    0.3908    0.3628 C   0  0  0  0  0  0  0  0  0  0  0  0
    1.8258   -0.2545   -0.7408 O   0  0  0  0  0  0  0  0  0  0  0  0
    0.6458   -0.3487   -0.0261 C   0  0  0  0  0  0  0  0  0  0  0  0
   -0.6216   -0.1196   -0.7831 C   0  0  0  0  0  0  0  0  0  0  0  0
   -1.8040    0.2641    0.0995 C   0  0  0  0  0  0  0  0  0  0  0  0
   -1.7775   -1.0161   -0.6863 C   0  0  0  0  0  0  0  0  0  0  0  0
    3.1068    1.1863    0.0639 H   0  0  0  0  0  0  0  0  0  0  0  0
    2.7887   -0.3267    1.1293 H   0  0  0  0  0  0  0  0  0  0  0  0
    0.6746   -1.2515    0.6286 H   0  0  0  0  0  0  0  0  0  0  0  0
   -0.5271    0.5211   -1.6819 H   0  0  0  0  0  0  0  0  0  0  0  0
   -1.6821    0.1948    1.2047 H   0  0  0  0  0  0  0  0  0  0  0  0
   -2.4589    1.1010   -0.2259 H   0  0  0  0  0  0  0  0  0  0  0  0
   -2.4350   -1.1049   -1.5937 H   0  0  0  0  0  0  0  0  0  0  0  0
   -1.7615   -1.9350   -0.0785 H   0  0  0  0  0  0  0  0  0  0  0  0
  1  2  2  0
  2  3  1  0
  3  4  1  0
  4  5  1  0
  5  6  1  0
  6  7  1  0
  7  8  1  0
  5  2  1  0
  8  6  1  0
  3  9  1  0
  3 10  1  0
  5 11  1  0
  6 12  1  0
  7 13  1  0
  7 14  1  0
  8 15  1  0
  8 16  1  0
M  END
