
     RDKit          3D

 17 18  0  0  0  0  0  0  0  0999 V2000
    2.0555   -2.2907   -0.0887 O   0  0  0  0  0  0  0  0  0  0  0  0
    1.1699   -1.4102   -0.3011 C   0  0  0  0  0  0  0  0  0  0  0  0
    1.3870   -0.0829    0.2948 C   0  0  0  0  0  0  0  0  0  0  0  0
    0.2742    0.8682    0.1412 C   0  0  0  0  0  0  0  0  0  0  0  0
    0.6509    2.1795   -0.2162 O   0  0  0  0  0  0  0  0  0  0  0  0
   -0.8518    0.7750    1.1093 C   0  0  0  0  0  0  0  0  0  0  0  0
   -1.0032    0.4071   -0.3351 C   0  0  0  0  0  0  0  0  0  0  0  0
   -1.1749   -1.0284   -0.6629 C   0  0  0  0  0  0  0  0  0  0  0  0
    0.0331   -1.6454   -1.0549 O   0  0  0  0  0  0  0  0  0  0  0  0
    2.3439    0.3302   -0.1293 H   0  0  0  0  0  0  0  0  0  0  0  0
    1.6008   -0.2137    1.3874 H   0  0  0  0  0  0  0  0  0  0  0  0
    0.8417    2.1200   -1.2007 H   0  0  0  0  0  0  0  0  0  0  0  0
   -0.7894   -0.0150    1.8816 H   0  0  0  0  0  0  0  0  0  0  0  0
   -1.3974    1.6700    1.4416 H   0  0  0  0  0  0  0  0  0  0  0  0
   -1.6117    1.0980   -0.9889 H   0  0  0  0  0  0  0  0  0  0  0  0
   -1.6305   -1.5539    0.2205 H   0  0  0  0  0  0  0  0  0  0  0  0
   -1.8982   -1.2076   -1.4986 H   0  0  0  0  0  0  0  0  0  0  0  0
  1  2  2  0
  2  3  1  0
  3  4  1  0
  4  5  1  0
  4  6  1  0
  6  7  1  0
  7  8  1  0
  8  9  1  0
  9  2  1  0
  7  4  1  0
  3 10  1  0
  3 11  1  0
  5 12  1  0
  6 13  1  0
  6 14  1  0
  7 15  1  0
  8 16  1  0
  8 17  1  0
M  END
