
     RDKit          3D

 17 17  0  0  0  0  0  0  0  0999 V2000
   -2.7284   -0.7025   -0.0640 O   0  0  0  0  0  0  0  0  0  0  0  0
   -1.5738   -0.3351   -0.1700 C   0  0  0  0  0  0  0  0  0  0  0  0
   -0.5284   -1.3789   -0.2881 C   0  0  0  0  0  0  0  0  0  0  0  0
    0.7096   -0.9408    0.4521 C   0  0  0  0  0  0  0  0  0  0  0  0
    1.1101    0.4204   -0.0769 C   0  0  0  0  0  0  0  0  0  0  0  0
    2.3758    0.7347    0.3386 O   0  0  0  0  0  0  0  0  0  0  0  0
    0.0724    1.3848    0.3896 C   0  0  0  0  0  0  0  0  0  0  0  0
    0.2986    2.3027    1.1512 O   0  0  0  0  0  0  0  0  0  0  0  0
   -1.2988    1.1178   -0.1735 C   0  0  0  0  0  0  0  0  0  0  0  0
   -0.2869   -1.6111   -1.3584 H   0  0  0  0  0  0  0  0  0  0  0  0
   -0.8813   -2.3147    0.2226 H   0  0  0  0  0  0  0  0  0  0  0  0
    1.5241   -1.6692    0.3677 H   0  0  0  0  0  0  0  0  0  0  0  0
    0.4147   -0.7898    1.5146 H   0  0  0  0  0  0  0  0  0  0  0  0
    1.0813    0.4483   -1.1922 H   0  0  0  0  0  0  0  0  0  0  0  0
    3.0169    0.2254   -0.2285 H   0  0  0  0  0  0  0  0  0  0  0  0
   -2.0801    1.6820    0.3671 H   0  0  0  0  0  0  0  0  0  0  0  0
   -1.2258    1.4261   -1.2520 H   0  0  0  0  0  0  0  0  0  0  0  0
  1  2  2  0
  2  3  1  0
  3  4  1  0
  4  5  1  0
  5  6  1  0
  5  7  1  0
  7  8  2  0
  7  9  1  0
  9  2  1  0
  3 10  1  0
  3 11  1  0
  4 12  1  0
  4 13  1  0
  5 14  1  0
  6 15  1  0
  9 16  1  0
  9 17  1  0
M  END
