
     RDKit          3D

 19 21  0  0  0  0  0  0  0  0999 V2000
   -2.4874   -0.4682   -1.2803 O   0  0  0  0  0  0  0  0  0  0  0  0
   -1.4673   -0.2422   -0.7227 C   0  0  0  0  0  0  0  0  0  0  0  0
   -1.2265    0.1665    0.6782 C   0  0  0  0  0  0  0  0  0  0  0  0
   -0.3387    1.3767    0.4934 C   0  0  0  0  0  0  0  0  0  0  0  0
    0.5674    0.9208   -0.6524 C   0  0  0  0  0  0  0  0  0  0  0  0
    1.6680   -0.0238   -0.1910 C   0  0  0  0  0  0  0  0  0  0  0  0
    0.6021   -1.0844   -0.1270 C   0  0  0  0  0  0  0  0  0  0  0  0
   -0.2935   -0.9551    1.1026 C   0  0  0  0  0  0  0  0  0  0  0  0
   -0.0998   -0.2938   -1.2423 C   0  0  0  0  0  0  0  0  0  0  0  0
   -2.0885    0.3057    1.2938 H   0  0  0  0  0  0  0  0  0  0  0  0
   -0.8794    2.2730    0.1918 H   0  0  0  0  0  0  0  0  0  0  0  0
    0.2572    1.4773    1.4187 H   0  0  0  0  0  0  0  0  0  0  0  0
    0.8802    1.7034   -1.3359 H   0  0  0  0  0  0  0  0  0  0  0  0
    2.3531   -0.2314   -1.0294 H   0  0  0  0  0  0  0  0  0  0  0  0
    2.1321    0.2696    0.7585 H   0  0  0  0  0  0  0  0  0  0  0  0
    0.8887   -2.0980   -0.3893 H   0  0  0  0  0  0  0  0  0  0  0  0
   -0.8395   -1.9022    1.2896 H   0  0  0  0  0  0  0  0  0  0  0  0
    0.2662   -0.6168    1.9879 H   0  0  0  0  0  0  0  0  0  0  0  0
    0.1055   -0.5774   -2.2442 H   0  0  0  0  0  0  0  0  0  0  0  0
  1  2  2  0
  2  3  1  0
  3  4  1  0
  4  5  1  0
  5  6  1  0
  6  7  1  0
  7  8  1  0
  7  9  1  0
  9  2  1  0
  8  3  1  0
  9  5  1  0
  3 10  1  0
  4 11  1  0
  4 12  1  0
  5 13  1  0
  6 14  1  0
  6 15  1  0
  7 16  1  0
  8 17  1  0
  8 18  1  0
  9 19  1  0
M  END
