
     RDKit          3D

 17 18  0  0  0  0  0  0  0  0999 V2000
   -0.6809   -0.3086    2.4996 O   0  0  0  0  0  0  0  0  0  0  0  0
   -0.6509   -0.2388    1.2932 C   0  0  0  0  0  0  0  0  0  0  0  0
   -1.6157   -0.4928    0.1638 C   0  0  0  0  0  0  0  0  0  0  0  0
   -1.7072    0.8501   -0.4334 C   0  0  0  0  0  0  0  0  0  0  0  0
   -0.4374    1.2653   -0.4305 C   0  0  0  0  0  0  0  0  0  0  0  0
    0.2688    0.1129    0.1733 C   0  0  0  0  0  0  0  0  0  0  0  0
    1.6865    0.1366    0.3873 C   0  0  0  0  0  0  0  0  0  0  0  0
    2.4446    0.4707   -0.6993 O   0  0  0  0  0  0  0  0  0  0  0  0
   -0.3759   -1.0436   -0.5614 C   0  0  0  0  0  0  0  0  0  0  0  0
   -2.4394   -1.1147    0.3117 H   0  0  0  0  0  0  0  0  0  0  0  0
   -2.6138    1.3287   -0.7725 H   0  0  0  0  0  0  0  0  0  0  0  0
    0.0161    2.1877   -0.7664 H   0  0  0  0  0  0  0  0  0  0  0  0
    1.9320    0.8859    1.1952 H   0  0  0  0  0  0  0  0  0  0  0  0
    2.0294   -0.8404    0.8258 H   0  0  0  0  0  0  0  0  0  0  0  0
    2.6733   -0.2799   -1.2959 H   0  0  0  0  0  0  0  0  0  0  0  0
   -0.0786   -2.0410   -0.2342 H   0  0  0  0  0  0  0  0  0  0  0  0
   -0.4508   -0.8782   -1.6563 H   0  0  0  0  0  0  0  0  0  0  0  0
  1  2  2  0
  2  3  1  0
  3  4  1  0
  4  5  2  0
  5  6  1  0
  6  7  1  0
  7  8  1  0
  6  9  1  0
  6  2  1  0
  9  3  1  0
  3 10  1  0
  4 11  1  0
  5 12  1  0
  7 13  1  0
  7 14  1  0
  8 15  1  0
  9 16  1  0
  9 17  1  0
M  END
