
     RDKit          3D

 15 17  0  0  0  0  0  0  0  0999 V2000
   -2.2466    1.3725    0.2715 O   0  0  0  0  0  0  0  0  0  0  0  0
   -1.3345    0.5908    0.0620 C   0  0  0  0  0  0  0  0  0  0  0  0
   -1.4536   -0.8436    0.2806 C   0  0  0  0  0  0  0  0  0  0  0  0
   -0.3216   -1.5314    0.5061 O   0  0  0  0  0  0  0  0  0  0  0  0
    0.8705   -1.0101    0.1663 C   0  0  0  0  0  0  0  0  0  0  0  0
    1.4253    0.2613    0.6507 C   0  0  0  0  0  0  0  0  0  0  0  0
    0.7388    1.4462    0.6754 O   0  0  0  0  0  0  0  0  0  0  0  0
   -0.0655    1.1624   -0.4359 C   0  0  0  0  0  0  0  0  0  0  0  0
    0.9194    0.0837   -0.8006 C   0  0  0  0  0  0  0  0  0  0  0  0
   -2.0308   -1.2712   -0.5919 H   0  0  0  0  0  0  0  0  0  0  0  0
   -2.1452   -1.0204    1.1589 H   0  0  0  0  0  0  0  0  0  0  0  0
    1.6542   -1.8121   -0.0048 H   0  0  0  0  0  0  0  0  0  0  0  0
    2.5229    0.3743    0.7873 H   0  0  0  0  0  0  0  0  0  0  0  0
   -0.1979    1.9770   -1.1499 H   0  0  0  0  0  0  0  0  0  0  0  0
    1.6646    0.2207   -1.5758 H   0  0  0  0  0  0  0  0  0  0  0  0
  1  2  2  0
  2  3  1  0
  3  4  1  0
  4  5  1  0
  5  6  1  0
  6  7  1  0
  7  8  1  0
  8  9  1  0
  8  2  1  0
  9  5  1  0
  9  6  1  0
  3 10  1  0
  3 11  1  0
  5 12  1  0
  6 13  1  0
  8 14  1  0
  9 15  1  0
M  END
