
     RDKit          3D

 16 16  0  0  0  0  0  0  0  0999 V2000
    0.4153   -2.2319    1.1252 O   0  0  0  0  0  0  0  0  0  0  0  0
    0.1865   -1.2796    0.3908 C   0  0  0  0  0  0  0  0  0  0  0  0
   -1.2249   -0.8877    0.1675 C   0  0  0  0  0  0  0  0  0  0  0  0
   -1.2362    0.4990   -0.4895 C   0  0  0  0  0  0  0  0  0  0  0  0
   -0.2331    1.3023    0.2567 C   0  0  0  0  0  0  0  0  0  0  0  0
   -0.6470    2.2148    0.9439 O   0  0  0  0  0  0  0  0  0  0  0  0
    1.1952    0.9293    0.1058 C   0  0  0  0  0  0  0  0  0  0  0  0
    1.3079   -0.5584   -0.2431 C   0  0  0  0  0  0  0  0  0  0  0  0
   -1.8031   -1.6180   -0.3991 H   0  0  0  0  0  0  0  0  0  0  0  0
   -1.6653   -0.7146    1.1889 H   0  0  0  0  0  0  0  0  0  0  0  0
   -2.2341    0.9359   -0.4952 H   0  0  0  0  0  0  0  0  0  0  0  0
   -0.8857    0.3483   -1.5521 H   0  0  0  0  0  0  0  0  0  0  0  0
    1.7976    1.1579    1.0147 H   0  0  0  0  0  0  0  0  0  0  0  0
    1.5827    1.5075   -0.7757 H   0  0  0  0  0  0  0  0  0  0  0  0
    2.2719   -0.9674    0.1010 H   0  0  0  0  0  0  0  0  0  0  0  0
    1.1723   -0.6374   -1.3399 H   0  0  0  0  0  0  0  0  0  0  0  0
  1  2  2  0
  2  3  1  0
  3  4  1  0
  4  5  1  0
  5  6  2  0
  5  7  1  0
  7  8  1  0
  8  2  1  0
  3  9  1  0
  3 10  1  0
  4 11  1  0
  4 12  1  0
  7 13  1  0
  7 14  1  0
  8 15  1  0
  8 16  1  0
M  END
