
     RDKit          3D

 17 17  0  0  0  0  0  0  0  0999 V2000
    2.3463    1.5121   -0.5505 O   0  0  0  0  0  0  0  0  0  0  0  0
    1.3892    0.7984   -0.1535 C   0  0  0  0  0  0  0  0  0  0  0  0
    1.4999   -0.6508   -0.2874 C   0  0  0  0  0  0  0  0  0  0  0  0
    0.6414   -1.6266    0.0058 C   0  0  0  0  0  0  0  0  0  0  0  0
   -0.7124   -1.3942    0.5763 C   0  0  0  0  0  0  0  0  0  0  0  0
   -1.3431   -0.3273   -0.2602 C   0  0  0  0  0  0  0  0  0  0  0  0
   -2.2966   -0.6723   -0.9274 O   0  0  0  0  0  0  0  0  0  0  0  0
   -0.9918    1.0955   -0.4100 C   0  0  0  0  0  0  0  0  0  0  0  0
    0.1951    1.4947    0.4329 C   0  0  0  0  0  0  0  0  0  0  0  0
    2.4293   -1.0088   -0.6911 H   0  0  0  0  0  0  0  0  0  0  0  0
    0.9443   -2.6527   -0.1812 H   0  0  0  0  0  0  0  0  0  0  0  0
   -1.3282   -2.3018    0.5914 H   0  0  0  0  0  0  0  0  0  0  0  0
   -0.5876   -1.0245    1.6263 H   0  0  0  0  0  0  0  0  0  0  0  0
   -1.8648    1.7585   -0.1953 H   0  0  0  0  0  0  0  0  0  0  0  0
   -0.6984    1.2467   -1.4824 H   0  0  0  0  0  0  0  0  0  0  0  0
    0.2977    2.5845    0.4164 H   0  0  0  0  0  0  0  0  0  0  0  0
    0.0798    1.1687    1.4900 H   0  0  0  0  0  0  0  0  0  0  0  0
  1  2  2  0
  2  3  1  0
  3  4  2  0
  4  5  1  0
  5  6  1  0
  6  7  2  0
  6  8  1  0
  8  9  1  0
  9  2  1  0
  3 10  1  0
  4 11  1  0
  5 12  1  0
  5 13  1  0
  8 14  1  0
  8 15  1  0
  9 16  1  0
  9 17  1  0
M  END
