
     RDKit          3D

 15 16  0  0  0  0  0  0  0  0999 V2000
    2.3558    1.5568    0.4117 O   0  0  0  0  0  0  0  0  0  0  0  0
    1.2532    1.0028    0.1874 C   0  0  0  0  0  0  0  0  0  0  0  0
    0.0735    1.7317    0.2512 O   0  0  0  0  0  0  0  0  0  0  0  0
   -1.1298    1.0185    0.2122 C   0  0  0  0  0  0  0  0  0  0  0  0
   -0.9309   -0.3910   -0.3040 C   0  0  0  0  0  0  0  0  0  0  0  0
    0.0240   -1.0594    0.6964 C   0  0  0  0  0  0  0  0  0  0  0  0
    1.1145   -0.4276   -0.1535 C   0  0  0  0  0  0  0  0  0  0  0  0
    0.1627   -0.4978   -1.2919 C   0  0  0  0  0  0  0  0  0  0  0  0
    0.2926   -0.5987   -2.4882 O   0  0  0  0  0  0  0  0  0  0  0  0
   -1.4618    0.8998    1.2854 H   0  0  0  0  0  0  0  0  0  0  0  0
   -1.9243    1.5020   -0.3732 H   0  0  0  0  0  0  0  0  0  0  0  0
   -1.8379   -0.9485   -0.5006 H   0  0  0  0  0  0  0  0  0  0  0  0
   -0.0101   -0.6318    1.7083 H   0  0  0  0  0  0  0  0  0  0  0  0
   -0.0058   -2.1416    0.5898 H   0  0  0  0  0  0  0  0  0  0  0  0
    2.0244   -1.0153   -0.2310 H   0  0  0  0  0  0  0  0  0  0  0  0
  1  2  2  0
  2  3  1  0
  3  4  1  0
  4  5  1  0
  5  6  1  0
  6  7  1  0
  7  8  1  0
  8  9  2  0
  7  2  1  0
  8  5  1  0
  4 10  1  0
  4 11  1  0
  5 12  1  0
  6 13  1  0
  6 14  1  0
  7 15  1  0
M  END
