
     RDKit          3D

 15 16  0  0  0  0  0  0  0  0999 V2000
    1.5456    2.6003    0.1497 O   0  0  0  0  0  0  0  0  0  0  0  0
    1.3720    1.3540    0.1186 C   0  0  0  0  0  0  0  0  0  0  0  0
    2.2740    0.3147    0.1789 O   0  0  0  0  0  0  0  0  0  0  0  0
    1.6165   -0.9176    0.1081 C   0  0  0  0  0  0  0  0  0  0  0  0
    0.1779   -0.5618   -0.0056 C   0  0  0  0  0  0  0  0  0  0  0  0
    0.0335    0.7353    0.0000 C   0  0  0  0  0  0  0  0  0  0  0  0
   -1.4209    1.0495   -0.1156 C   0  0  0  0  0  0  0  0  0  0  0  0
   -1.9910   -0.1020   -0.5902 O   0  0  0  0  0  0  0  0  0  0  0  0
   -1.2063   -1.1571   -0.1280 C   0  0  0  0  0  0  0  0  0  0  0  0
    1.9003   -1.5037   -0.7862 H   0  0  0  0  0  0  0  0  0  0  0  0
    1.7786   -1.5439    1.0190 H   0  0  0  0  0  0  0  0  0  0  0  0
   -1.8686    1.2871    0.8876 H   0  0  0  0  0  0  0  0  0  0  0  0
   -1.5675    1.9382   -0.7553 H   0  0  0  0  0  0  0  0  0  0  0  0
   -1.1298   -1.9398   -0.9189 H   0  0  0  0  0  0  0  0  0  0  0  0
   -1.5144   -1.5533    0.8378 H   0  0  0  0  0  0  0  0  0  0  0  0
  1  2  2  0
  2  3  1  0
  3  4  1  0
  4  5  1  0
  5  6  2  0
  6  7  1  0
  7  8  1  0
  8  9  1  0
  6  2  1  0
  9  5  1  0
  4 10  1  0
  4 11  1  0
  7 12  1  0
  7 13  1  0
  9 14  1  0
  9 15  1  0
M  END
