
     RDKit          3D

 15 16  0  0  0  0  0  0  0  0999 V2000
    3.8107   -0.3432   -0.5698 O   0  0  0  0  0  0  0  0  0  0  0  0
    2.5651   -0.1817   -0.3428 C   0  0  0  0  0  0  0  0  0  0  0  0
    1.9004    0.9386   -0.3721 O   0  0  0  0  0  0  0  0  0  0  0  0
    0.6495    0.6518   -0.0787 C   0  0  0  0  0  0  0  0  0  0  0  0
    0.5630   -0.7099    0.1369 C   0  0  0  0  0  0  0  0  0  0  0  0
    1.7762   -1.1609   -0.0415 O   0  0  0  0  0  0  0  0  0  0  0  0
   -0.8583   -1.0648    0.4745 C   0  0  0  0  0  0  0  0  0  0  0  0
   -1.5851    0.0535   -0.2913 C   0  0  0  0  0  0  0  0  0  0  0  0
   -0.7180    1.2292    0.1124 C   0  0  0  0  0  0  0  0  0  0  0  0
   -1.0733   -0.8781    1.5370 H   0  0  0  0  0  0  0  0  0  0  0  0
   -1.1458   -2.0482    0.1123 H   0  0  0  0  0  0  0  0  0  0  0  0
   -1.4835   -0.1841   -1.3634 H   0  0  0  0  0  0  0  0  0  0  0  0
   -2.6221    0.1538    0.0273 H   0  0  0  0  0  0  0  0  0  0  0  0
   -0.8961    1.4308    1.1872 H   0  0  0  0  0  0  0  0  0  0  0  0
   -0.8826    2.1133   -0.5280 H   0  0  0  0  0  0  0  0  0  0  0  0
  1  2  2  0
  2  3  1  0
  3  4  1  0
  4  5  2  0
  5  6  1  0
  5  7  1  0
  7  8  1  0
  8  9  1  0
  6  2  1  0
  9  4  1  0
  7 10  1  0
  7 11  1  0
  8 12  1  0
  8 13  1  0
  9 14  1  0
  9 15  1  0
M  END
