
     RDKit          3D

 17 18  0  0  0  0  0  0  0  0999 V2000
   -1.0152    1.9898   -1.3786 O   0  0  0  0  0  0  0  0  0  0  0  0
   -0.5493    1.1130   -0.7102 C   0  0  0  0  0  0  0  0  0  0  0  0
    0.3824    1.3596    0.4423 C   0  0  0  0  0  0  0  0  0  0  0  0
    0.7633   -0.0492    0.9234 C   0  0  0  0  0  0  0  0  0  0  0  0
    1.3305   -0.7487   -0.3157 C   0  0  0  0  0  0  0  0  0  0  0  0
    0.3851   -0.9233   -1.2965 O   0  0  0  0  0  0  0  0  0  0  0  0
   -0.8353   -0.3518   -0.9360 C   0  0  0  0  0  0  0  0  0  0  0  0
   -1.3196   -0.8853    0.4046 C   0  0  0  0  0  0  0  0  0  0  0  0
   -0.3418   -0.7532    1.3609 O   0  0  0  0  0  0  0  0  0  0  0  0
   -0.0955    1.9482    1.2222 H   0  0  0  0  0  0  0  0  0  0  0  0
    1.3012    1.7934    0.0160 H   0  0  0  0  0  0  0  0  0  0  0  0
    1.5376   -0.0315    1.6868 H   0  0  0  0  0  0  0  0  0  0  0  0
    1.7694   -1.7127    0.0052 H   0  0  0  0  0  0  0  0  0  0  0  0
    2.1713   -0.0802   -0.6632 H   0  0  0  0  0  0  0  0  0  0  0  0
   -1.5870   -0.5080   -1.7165 H   0  0  0  0  0  0  0  0  0  0  0  0
   -1.6988   -1.9182    0.2780 H   0  0  0  0  0  0  0  0  0  0  0  0
   -2.1983   -0.2419    0.6774 H   0  0  0  0  0  0  0  0  0  0  0  0
  1  2  2  0
  2  3  1  0
  3  4  1  0
  4  5  1  0
  5  6  1  0
  6  7  1  0
  7  8  1  0
  8  9  1  0
  7  2  1  0
  9  4  1  0
  3 10  1  0
  3 11  1  0
  4 12  1  0
  5 13  1  0
  5 14  1  0
  7 15  1  0
  8 16  1  0
  8 17  1  0
M  END
