
     RDKit          3D

 15 16  0  0  0  0  0  0  0  0999 V2000
   -1.4116    2.1799   -0.9549 O   0  0  0  0  0  0  0  0  0  0  0  0
   -1.1827    1.0377   -0.5712 C   0  0  0  0  0  0  0  0  0  0  0  0
   -2.0362   -0.2026   -0.5826 C   0  0  0  0  0  0  0  0  0  0  0  0
   -1.2406   -1.2356   -0.1085 O   0  0  0  0  0  0  0  0  0  0  0  0
    0.0673   -0.8783   -0.2408 C   0  0  0  0  0  0  0  0  0  0  0  0
    0.9570   -1.3950    0.6778 O   0  0  0  0  0  0  0  0  0  0  0  0
    1.9420   -0.4082    0.8508 C   0  0  0  0  0  0  0  0  0  0  0  0
    1.2058    0.8701    0.6695 C   0  0  0  0  0  0  0  0  0  0  0  0
    0.0809    0.6144    0.0296 C   0  0  0  0  0  0  0  0  0  0  0  0
   -2.4739   -0.4012   -1.5592 H   0  0  0  0  0  0  0  0  0  0  0  0
   -2.8731   -0.0792    0.1461 H   0  0  0  0  0  0  0  0  0  0  0  0
    0.4241   -0.9790   -1.2873 H   0  0  0  0  0  0  0  0  0  0  0  0
    2.3453   -0.5269    1.8778 H   0  0  0  0  0  0  0  0  0  0  0  0
    2.7166   -0.4545    0.0767 H   0  0  0  0  0  0  0  0  0  0  0  0
    1.4790    1.8583    0.9762 H   0  0  0  0  0  0  0  0  0  0  0  0
  1  2  2  0
  2  3  1  0
  3  4  1  0
  4  5  1  0
  5  6  1  0
  6  7  1  0
  7  8  1  0
  8  9  2  0
  9  2  1  0
  9  5  1  0
  3 10  1  0
  3 11  1  0
  5 12  1  0
  7 13  1  0
  7 14  1  0
  8 15  1  0
M  END
