
     RDKit          3D

 15 16  0  0  0  0  0  0  0  0999 V2000
    3.0125   -0.4033    0.2773 O   0  0  0  0  0  0  0  0  0  0  0  0
    1.7883   -0.1221    0.2151 C   0  0  0  0  0  0  0  0  0  0  0  0
    0.6272   -1.0106    0.3970 C   0  0  0  0  0  0  0  0  0  0  0  0
   -0.5560   -0.3108   -0.2154 C   0  0  0  0  0  0  0  0  0  0  0  0
   -1.9242   -0.5369    0.2211 C   0  0  0  0  0  0  0  0  0  0  0  0
   -1.4040   -1.0862   -0.9579 O   0  0  0  0  0  0  0  0  0  0  0  0
   -0.1486    1.0572   -0.6142 C   0  0  0  0  0  0  0  0  0  0  0  0
    1.2393    1.1998   -0.0624 C   0  0  0  0  0  0  0  0  0  0  0  0
    1.8408    2.3042    0.1321 O   0  0  0  0  0  0  0  0  0  0  0  0
    0.4613   -1.2555    1.4675 H   0  0  0  0  0  0  0  0  0  0  0  0
    0.7753   -1.9958   -0.1267 H   0  0  0  0  0  0  0  0  0  0  0  0
   -2.0882   -1.1751    1.0973 H   0  0  0  0  0  0  0  0  0  0  0  0
   -2.6531    0.2937    0.0256 H   0  0  0  0  0  0  0  0  0  0  0  0
   -0.8314    1.8026   -0.1530 H   0  0  0  0  0  0  0  0  0  0  0  0
   -0.1392    1.2388   -1.7033 H   0  0  0  0  0  0  0  0  0  0  0  0
  1  2  2  0
  2  3  1  0
  3  4  1  0
  4  5  1  0
  5  6  1  0
  4  7  1  0
  7  8  1  0
  8  9  2  0
  8  2  1  0
  6  4  1  0
  3 10  1  0
  3 11  1  0
  5 12  1  0
  5 13  1  0
  7 14  1  0
  7 15  1  0
M  END
