
     RDKit          3D

 15 16  0  0  0  0  0  0  0  0999 V2000
   -1.8877    1.8416    0.9619 O   0  0  0  0  0  0  0  0  0  0  0  0
   -1.0075    0.9925    0.7441 C   0  0  0  0  0  0  0  0  0  0  0  0
   -0.0887    0.5179    1.7073 O   0  0  0  0  0  0  0  0  0  0  0  0
    0.7177   -0.4793    1.1058 C   0  0  0  0  0  0  0  0  0  0  0  0
    1.5672    0.2086    0.0954 C   0  0  0  0  0  0  0  0  0  0  0  0
    0.7292    0.6746   -0.8544 C   0  0  0  0  0  0  0  0  0  0  0  0
   -0.6432    0.2466   -0.4873 C   0  0  0  0  0  0  0  0  0  0  0  0
   -1.5563    0.2110   -1.4511 O   0  0  0  0  0  0  0  0  0  0  0  0
   -0.3199   -1.1141    0.1611 C   0  0  0  0  0  0  0  0  0  0  0  0
    1.1991   -1.1618    1.7555 H   0  0  0  0  0  0  0  0  0  0  0  0
    2.6257    0.3356    0.0780 H   0  0  0  0  0  0  0  0  0  0  0  0
    0.9603    1.2559   -1.7380 H   0  0  0  0  0  0  0  0  0  0  0  0
   -1.2319   -0.2508   -2.2360 H   0  0  0  0  0  0  0  0  0  0  0  0
   -1.1961   -1.4731    0.6977 H   0  0  0  0  0  0  0  0  0  0  0  0
    0.1321   -1.8054   -0.5401 H   0  0  0  0  0  0  0  0  0  0  0  0
  1  2  2  0
  2  3  1  0
  3  4  1  0
  4  5  1  0
  5  6  2  0
  6  7  1  0
  7  8  1  0
  7  9  1  0
  7  2  1  0
  9  4  1  0
  4 10  1  0
  5 11  1  0
  6 12  1  0
  8 13  1  0
  9 14  1  0
  9 15  1  0
M  END
