
     RDKit          3D

 13 13  0  0  0  0  0  0  0  0999 V2000
    1.7557   -1.4129    1.4902 O   0  0  0  0  0  0  0  0  0  0  0  0
    0.8818   -0.9497    0.7241 C   0  0  0  0  0  0  0  0  0  0  0  0
    1.3050    0.0397   -0.2927 C   0  0  0  0  0  0  0  0  0  0  0  0
    0.3205    1.1454   -0.2198 C   0  0  0  0  0  0  0  0  0  0  0  0
   -0.9621    0.8557   -0.0937 C   0  0  0  0  0  0  0  0  0  0  0  0
   -1.4331   -0.5612   -0.0239 C   0  0  0  0  0  0  0  0  0  0  0  0
   -0.4616   -1.2751    0.7328 O   0  0  0  0  0  0  0  0  0  0  0  0
    2.3468    0.3769   -0.1623 H   0  0  0  0  0  0  0  0  0  0  0  0
    1.1662   -0.4264   -1.3118 H   0  0  0  0  0  0  0  0  0  0  0  0
    0.6775    2.1537   -0.2716 H   0  0  0  0  0  0  0  0  0  0  0  0
   -1.7074    1.6505   -0.0378 H   0  0  0  0  0  0  0  0  0  0  0  0
   -2.3826   -0.6412    0.5244 H   0  0  0  0  0  0  0  0  0  0  0  0
   -1.5066   -0.9553   -1.0580 H   0  0  0  0  0  0  0  0  0  0  0  0
  1  2  2  0
  2  3  1  0
  3  4  1  0
  4  5  2  0
  5  6  1  0
  6  7  1  0
  7  2  1  0
  3  8  1  0
  3  9  1  0
  4 10  1  0
  5 11  1  0
  6 12  1  0
  6 13  1  0
M  END
