
     RDKit          3D

 17 18  0  0  0  0  0  0  0  0999 V2000
   -0.4413    2.6987   -0.5436 O   0  0  0  0  0  0  0  0  0  0  0  0
   -0.7053    1.4916   -0.3765 C   0  0  0  0  0  0  0  0  0  0  0  0
   -1.8536    0.8674    0.2108 C   0  0  0  0  0  0  0  0  0  0  0  0
   -1.7580   -0.4478    0.1944 C   0  0  0  0  0  0  0  0  0  0  0  0
   -0.4982   -0.8933   -0.4231 C   0  0  0  0  0  0  0  0  0  0  0  0
    0.6168   -1.2552    0.5042 C   0  0  0  0  0  0  0  0  0  0  0  0
    1.2421    0.0929    0.2319 C   0  0  0  0  0  0  0  0  0  0  0  0
    2.5573    0.0144   -0.2590 O   0  0  0  0  0  0  0  0  0  0  0  0
    0.2031    0.3983   -0.7933 C   0  0  0  0  0  0  0  0  0  0  0  0
   -2.6969    1.4044    0.6185 H   0  0  0  0  0  0  0  0  0  0  0  0
   -2.5260   -1.0854    0.5924 H   0  0  0  0  0  0  0  0  0  0  0  0
   -0.6141   -1.5820   -1.3014 H   0  0  0  0  0  0  0  0  0  0  0  0
    1.2202   -2.1164    0.1312 H   0  0  0  0  0  0  0  0  0  0  0  0
    0.3418   -1.3560    1.5758 H   0  0  0  0  0  0  0  0  0  0  0  0
    1.2017    0.7866    1.1034 H   0  0  0  0  0  0  0  0  0  0  0  0
    3.1911    0.4856    0.3688 H   0  0  0  0  0  0  0  0  0  0  0  0
    0.5192    0.4963   -1.8344 H   0  0  0  0  0  0  0  0  0  0  0  0
  1  2  2  0
  2  3  1  0
  3  4  2  0
  4  5  1  0
  5  6  1  0
  6  7  1  0
  7  8  1  0
  7  9  1  0
  9  2  1  0
  9  5  1  0
  3 10  1  0
  4 11  1  0
  5 12  1  0
  6 13  1  0
  6 14  1  0
  7 15  1  0
  8 16  1  0
  9 17  1  0
M  END
