
     RDKit          3D

 17 19  0  0  0  0  0  0  0  0999 V2000
    0.4991   -2.4853    0.3540 O   0  0  0  0  0  0  0  0  0  0  0  0
    0.4039   -1.2886    0.2908 C   0  0  0  0  0  0  0  0  0  0  0  0
    1.3836   -0.3033   -0.2217 C   0  0  0  0  0  0  0  0  0  0  0  0
    2.1210   -0.7472   -1.2864 O   0  0  0  0  0  0  0  0  0  0  0  0
    0.5795    0.9398   -0.5104 C   0  0  0  0  0  0  0  0  0  0  0  0
   -0.8541    0.8958   -0.8232 C   0  0  0  0  0  0  0  0  0  0  0  0
   -1.7029   -0.3077   -0.4657 C   0  0  0  0  0  0  0  0  0  0  0  0
   -0.7763   -0.5060    0.7360 C   0  0  0  0  0  0  0  0  0  0  0  0
   -0.3956    0.9308    0.5753 C   0  0  0  0  0  0  0  0  0  0  0  0
    2.0734   -0.0760    0.6440 H   0  0  0  0  0  0  0  0  0  0  0  0
    3.0539   -0.4040   -1.1816 H   0  0  0  0  0  0  0  0  0  0  0  0
    1.1344    1.8235   -0.7938 H   0  0  0  0  0  0  0  0  0  0  0  0
   -1.3105    1.7920   -1.2338 H   0  0  0  0  0  0  0  0  0  0  0  0
   -2.7464   -0.0494   -0.1735 H   0  0  0  0  0  0  0  0  0  0  0  0
   -1.6161   -1.0954   -1.2296 H   0  0  0  0  0  0  0  0  0  0  0  0
   -1.2551   -0.8170    1.6545 H   0  0  0  0  0  0  0  0  0  0  0  0
   -0.5919    1.6980    1.2911 H   0  0  0  0  0  0  0  0  0  0  0  0
  1  2  2  0
  2  3  1  0
  3  4  1  0
  3  5  1  0
  5  6  1  0
  6  7  1  0
  7  8  1  0
  8  9  1  0
  8  2  1  0
  9  5  1  0
  9  6  1  0
  3 10  1  0
  4 11  1  0
  5 12  1  0
  6 13  1  0
  7 14  1  0
  7 15  1  0
  8 16  1  0
  9 17  1  0
M  END
