
     RDKit          3D

 17 18  0  0  0  0  0  0  0  0999 V2000
    3.0581    0.3052    1.4754 O   0  0  0  0  0  0  0  0  0  0  0  0
    2.0216    0.3103    0.7815 C   0  0  0  0  0  0  0  0  0  0  0  0
    0.6620    0.1075    1.2739 C   0  0  0  0  0  0  0  0  0  0  0  0
   -0.1188   -0.3074    0.2923 C   0  0  0  0  0  0  0  0  0  0  0  0
   -1.5756   -0.6150    0.4319 C   0  0  0  0  0  0  0  0  0  0  0  0
   -2.5103    0.1243   -0.3717 C   0  0  0  0  0  0  0  0  0  0  0  0
   -2.2865    0.4697    1.0498 O   0  0  0  0  0  0  0  0  0  0  0  0
    0.6789   -0.4221   -0.9333 C   0  0  0  0  0  0  0  0  0  0  0  0
    1.8344    0.5112   -0.6820 C   0  0  0  0  0  0  0  0  0  0  0  0
    0.2997    0.2650    2.3015 H   0  0  0  0  0  0  0  0  0  0  0  0
   -1.8167   -1.5625    0.9093 H   0  0  0  0  0  0  0  0  0  0  0  0
   -3.5355   -0.2672   -0.5563 H   0  0  0  0  0  0  0  0  0  0  0  0
   -2.1457    0.9234   -1.0589 H   0  0  0  0  0  0  0  0  0  0  0  0
    0.1189   -0.1740   -1.8526 H   0  0  0  0  0  0  0  0  0  0  0  0
    1.0836   -1.4723   -0.9724 H   0  0  0  0  0  0  0  0  0  0  0  0
    1.4977    1.5512   -0.8278 H   0  0  0  0  0  0  0  0  0  0  0  0
    2.7341    0.2528   -1.2603 H   0  0  0  0  0  0  0  0  0  0  0  0
  1  2  2  0
  2  3  1  0
  3  4  2  0
  4  5  1  0
  5  6  1  0
  6  7  1  0
  4  8  1  0
  8  9  1  0
  9  2  1  0
  7  5  1  0
  3 10  1  0
  5 11  1  0
  6 12  1  0
  6 13  1  0
  8 14  1  0
  8 15  1  0
  9 16  1  0
  9 17  1  0
M  END
