
     RDKit          3D

 19 20  0  0  0  0  0  0  0  0999 V2000
   -1.3931   -1.7972    1.7128 O   0  0  0  0  0  0  0  0  0  0  0  0
   -0.9746   -1.0119    0.9196 C   0  0  0  0  0  0  0  0  0  0  0  0
   -1.6406    0.1835    0.3925 C   0  0  0  0  0  0  0  0  0  0  0  0
   -0.8208    0.6232   -0.8318 C   0  0  0  0  0  0  0  0  0  0  0  0
   -0.0740   -0.6649   -1.1451 C   0  0  0  0  0  0  0  0  0  0  0  0
    0.3466   -1.0715    0.2735 C   0  0  0  0  0  0  0  0  0  0  0  0
    1.2975   -0.0088    0.7510 C   0  0  0  0  0  0  0  0  0  0  0  0
    1.2793    1.2215   -0.1246 C   0  0  0  0  0  0  0  0  0  0  0  0
    0.0135    1.6495   -0.4526 O   0  0  0  0  0  0  0  0  0  0  0  0
   -1.6314    1.0100    1.1604 H   0  0  0  0  0  0  0  0  0  0  0  0
   -2.7055    0.0381    0.1290 H   0  0  0  0  0  0  0  0  0  0  0  0
   -1.4963    0.8815   -1.6762 H   0  0  0  0  0  0  0  0  0  0  0  0
    0.7710   -0.5292   -1.8110 H   0  0  0  0  0  0  0  0  0  0  0  0
   -0.8076   -1.4105   -1.4660 H   0  0  0  0  0  0  0  0  0  0  0  0
    0.7846   -2.0831    0.2600 H   0  0  0  0  0  0  0  0  0  0  0  0
    2.3265   -0.4136    0.7631 H   0  0  0  0  0  0  0  0  0  0  0  0
    1.0556    0.3277    1.7828 H   0  0  0  0  0  0  0  0  0  0  0  0
    1.8319    1.0464   -1.0677 H   0  0  0  0  0  0  0  0  0  0  0  0
    1.8374    2.0093    0.4302 H   0  0  0  0  0  0  0  0  0  0  0  0
  1  2  2  0
  2  3  1  0
  3  4  1  0
  4  5  1  0
  5  6  1  0
  6  7  1  0
  7  8  1  0
  8  9  1  0
  6  2  1  0
  9  4  1  0
  3 10  1  0
  3 11  1  0
  4 12  1  0
  5 13  1  0
  5 14  1  0
  6 15  1  0
  7 16  1  0
  7 17  1  0
  8 18  1  0
  8 19  1  0
M  END
