
     RDKit          3D

 17 18  0  0  0  0  0  0  0  0999 V2000
   -3.4225   -0.0324   -1.3448 O   0  0  0  0  0  0  0  0  0  0  0  0
   -2.2938   -0.0356   -0.8683 C   0  0  0  0  0  0  0  0  0  0  0  0
   -1.0048    0.0276   -1.3349 O   0  0  0  0  0  0  0  0  0  0  0  0
   -0.4117    0.1288   -0.0482 C   0  0  0  0  0  0  0  0  0  0  0  0
    0.7531   -0.7429    0.2919 C   0  0  0  0  0  0  0  0  0  0  0  0
    1.8649   -0.4176   -0.7058 C   0  0  0  0  0  0  0  0  0  0  0  0
    2.2390    0.9100   -0.6302 O   0  0  0  0  0  0  0  0  0  0  0  0
   -0.9735    1.0495    0.9504 C   0  0  0  0  0  0  0  0  0  0  0  0
   -1.7615   -0.1127    0.4997 C   0  0  0  0  0  0  0  0  0  0  0  0
    0.5330   -1.8146    0.2630 H   0  0  0  0  0  0  0  0  0  0  0  0
    1.1408   -0.4773    1.2925 H   0  0  0  0  0  0  0  0  0  0  0  0
    2.7657   -1.0307   -0.4431 H   0  0  0  0  0  0  0  0  0  0  0  0
    1.5572   -0.6214   -1.7416 H   0  0  0  0  0  0  0  0  0  0  0  0
    2.9403    1.0649    0.0625 H   0  0  0  0  0  0  0  0  0  0  0  0
   -1.3842    2.0504    0.6438 H   0  0  0  0  0  0  0  0  0  0  0  0
   -0.5441    1.0154    1.9563 H   0  0  0  0  0  0  0  0  0  0  0  0
   -1.9979   -0.9614    1.1567 H   0  0  0  0  0  0  0  0  0  0  0  0
  1  2  2  0
  2  3  1  0
  3  4  1  0
  4  5  1  0
  5  6  1  0
  6  7  1  0
  4  8  1  0
  8  9  1  0
  9  2  1  0
  9  4  1  0
  5 10  1  0
  5 11  1  0
  6 12  1  0
  6 13  1  0
  7 14  1  0
  8 15  1  0
  8 16  1  0
  9 17  1  0
M  END
