
     RDKit          3D

 17 18  0  0  0  0  0  0  0  0999 V2000
   -0.7034   -2.0669   -1.3091 O   0  0  0  0  0  0  0  0  0  0  0  0
   -0.5867   -1.0154   -0.7239 C   0  0  0  0  0  0  0  0  0  0  0  0
   -0.7542   -0.5708    0.6607 C   0  0  0  0  0  0  0  0  0  0  0  0
   -1.4507    0.6292    0.0941 C   0  0  0  0  0  0  0  0  0  0  0  0
   -2.6853    0.4118   -0.4791 O   0  0  0  0  0  0  0  0  0  0  0  0
   -0.2623    0.4019   -0.8117 C   0  0  0  0  0  0  0  0  0  0  0  0
    0.5212    0.2109    0.4547 C   0  0  0  0  0  0  0  0  0  0  0  0
    1.7690   -0.6073    0.3547 C   0  0  0  0  0  0  0  0  0  0  0  0
    2.8418    0.2646    0.1677 O   0  0  0  0  0  0  0  0  0  0  0  0
   -1.0041   -1.1016    1.4701 H   0  0  0  0  0  0  0  0  0  0  0  0
   -1.3307    1.5066    0.7315 H   0  0  0  0  0  0  0  0  0  0  0  0
   -3.0634    1.2966   -0.7133 H   0  0  0  0  0  0  0  0  0  0  0  0
   -0.0109    0.9544   -1.6061 H   0  0  0  0  0  0  0  0  0  0  0  0
    0.5571    1.1003    1.1128 H   0  0  0  0  0  0  0  0  0  0  0  0
    1.6978   -1.2356   -0.5456 H   0  0  0  0  0  0  0  0  0  0  0  0
    1.9800   -1.2008    1.2679 H   0  0  0  0  0  0  0  0  0  0  0  0
    2.4850    1.0221   -0.3843 H   0  0  0  0  0  0  0  0  0  0  0  0
  1  2  2  0
  2  3  1  0
  3  4  1  0
  4  5  1  0
  4  6  1  0
  6  7  1  0
  7  8  1  0
  8  9  1  0
  6  2  1  0
  7  3  1  0
  3 10  1  0
  4 11  1  0
  5 12  1  0
  6 13  1  0
  7 14  1  0
  8 15  1  0
  8 16  1  0
  9 17  1  0
M  END
