
     RDKit          3D

 17 18  0  0  0  0  0  0  0  0999 V2000
    3.1010    1.0056    0.1073 O   0  0  0  0  0  0  0  0  0  0  0  0
    1.8592    0.8021    0.1664 C   0  0  0  0  0  0  0  0  0  0  0  0
    1.3343   -0.5805    0.3229 C   0  0  0  0  0  0  0  0  0  0  0  0
    0.0565   -0.7871   -0.4085 C   0  0  0  0  0  0  0  0  0  0  0  0
   -1.1827   -0.7892    0.4307 C   0  0  0  0  0  0  0  0  0  0  0  0
   -2.1152   -1.7527    0.1003 O   0  0  0  0  0  0  0  0  0  0  0  0
   -0.8631    0.3191   -0.5170 C   0  0  0  0  0  0  0  0  0  0  0  0
   -0.4401    1.6548   -0.0565 C   0  0  0  0  0  0  0  0  0  0  0  0
    0.9505    1.8216    0.0909 O   0  0  0  0  0  0  0  0  0  0  0  0
    2.1125   -1.3079    0.0274 H   0  0  0  0  0  0  0  0  0  0  0  0
    1.1813   -0.7360    1.4312 H   0  0  0  0  0  0  0  0  0  0  0  0
    0.1404   -1.4897   -1.2788 H   0  0  0  0  0  0  0  0  0  0  0  0
   -1.0864   -0.6021    1.5193 H   0  0  0  0  0  0  0  0  0  0  0  0
   -1.8298   -2.2944   -0.6867 H   0  0  0  0  0  0  0  0  0  0  0  0
   -1.5438    0.3344   -1.4192 H   0  0  0  0  0  0  0  0  0  0  0  0
   -0.9009    1.9254    0.9257 H   0  0  0  0  0  0  0  0  0  0  0  0
   -0.7736    2.4764   -0.7554 H   0  0  0  0  0  0  0  0  0  0  0  0
  1  2  2  0
  2  3  1  0
  3  4  1  0
  4  5  1  0
  5  6  1  0
  5  7  1  0
  7  8  1  0
  8  9  1  0
  9  2  1  0
  7  4  1  0
  3 10  1  0
  3 11  1  0
  4 12  1  0
  5 13  1  0
  6 14  1  0
  7 15  1  0
  8 16  1  0
  8 17  1  0
M  END
