
     RDKit          3D

 19 20  0  0  0  0  0  0  0  0999 V2000
    2.1633   -1.6808    0.4009 O   0  0  0  0  0  0  0  0  0  0  0  0
    1.2148   -0.9906    0.1791 C   0  0  0  0  0  0  0  0  0  0  0  0
    0.2728   -1.1704   -0.9504 C   0  0  0  0  0  0  0  0  0  0  0  0
   -0.8940   -0.2327   -0.6283 C   0  0  0  0  0  0  0  0  0  0  0  0
   -0.4843    1.2090   -0.5956 C   0  0  0  0  0  0  0  0  0  0  0  0
    0.8261    1.3478    0.0971 C   0  0  0  0  0  0  0  0  0  0  0  0
    0.8992    0.1549    1.0679 C   0  0  0  0  0  0  0  0  0  0  0  0
   -0.3427   -0.0815    1.6519 O   0  0  0  0  0  0  0  0  0  0  0  0
   -1.2919   -0.5896    0.8119 C   0  0  0  0  0  0  0  0  0  0  0  0
   -0.1468   -2.1994   -0.8585 H   0  0  0  0  0  0  0  0  0  0  0  0
    0.7076   -0.9733   -1.9295 H   0  0  0  0  0  0  0  0  0  0  0  0
   -1.7096   -0.4271   -1.3370 H   0  0  0  0  0  0  0  0  0  0  0  0
   -1.2377    1.7714    0.0326 H   0  0  0  0  0  0  0  0  0  0  0  0
   -0.5310    1.6940   -1.5890 H   0  0  0  0  0  0  0  0  0  0  0  0
    0.9675    2.2967    0.6302 H   0  0  0  0  0  0  0  0  0  0  0  0
    1.6404    1.2651   -0.6606 H   0  0  0  0  0  0  0  0  0  0  0  0
    1.6219    0.3184    1.8643 H   0  0  0  0  0  0  0  0  0  0  0  0
   -2.2578   -0.0396    0.9787 H   0  0  0  0  0  0  0  0  0  0  0  0
   -1.4178   -1.6722    0.8341 H   0  0  0  0  0  0  0  0  0  0  0  0
  1  2  2  0
  2  3  1  0
  3  4  1  0
  4  5  1  0
  5  6  1  0
  6  7  1  0
  7  8  1  0
  8  9  1  0
  7  2  1  0
  9  4  1  0
  3 10  1  0
  3 11  1  0
  4 12  1  0
  5 13  1  0
  5 14  1  0
  6 15  1  0
  6 16  1  0
  7 17  1  0
  9 18  1  0
  9 19  1  0
M  END
