
     RDKit          3D

 15 17  0  0  0  0  0  0  0  0999 V2000
   -1.8324   -1.5492   -1.6050 O   0  0  0  0  0  0  0  0  0  0  0  0
   -1.3443   -0.8805   -0.6562 C   0  0  0  0  0  0  0  0  0  0  0  0
   -0.9375   -1.4681    0.5292 O   0  0  0  0  0  0  0  0  0  0  0  0
    0.0895   -0.6524    1.0483 C   0  0  0  0  0  0  0  0  0  0  0  0
    1.3642   -0.7836    0.2623 C   0  0  0  0  0  0  0  0  0  0  0  0
    1.4485    0.2312   -0.5905 C   0  0  0  0  0  0  0  0  0  0  0  0
    0.2740    1.1143   -0.4635 C   0  0  0  0  0  0  0  0  0  0  0  0
   -1.1025    0.5709   -0.5716 C   0  0  0  0  0  0  0  0  0  0  0  0
   -0.3834    0.7177    0.7721 C   0  0  0  0  0  0  0  0  0  0  0  0
    0.3053   -0.8682    2.1116 H   0  0  0  0  0  0  0  0  0  0  0  0
    2.0672   -1.6027    0.4132 H   0  0  0  0  0  0  0  0  0  0  0  0
    2.3025    0.3354   -1.2669 H   0  0  0  0  0  0  0  0  0  0  0  0
    0.4437    2.1490   -0.7736 H   0  0  0  0  0  0  0  0  0  0  0  0
   -1.9038    1.2967   -0.7375 H   0  0  0  0  0  0  0  0  0  0  0  0
   -0.7909    1.3896    1.5281 H   0  0  0  0  0  0  0  0  0  0  0  0
  1  2  2  0
  2  3  1  0
  3  4  1  0
  4  5  1  0
  5  6  2  0
  6  7  1  0
  7  8  1  0
  8  9  1  0
  8  2  1  0
  9  4  1  0
  9  7  1  0
  4 10  1  0
  5 11  1  0
  6 12  1  0
  7 13  1  0
  8 14  1  0
  9 15  1  0
M  END
