
     RDKit          3D

 15 17  0  0  0  0  0  0  0  0999 V2000
   -1.9333   -1.9365    0.6986 O   0  0  0  0  0  0  0  0  0  0  0  0
   -1.3606   -1.0352    0.1262 C   0  0  0  0  0  0  0  0  0  0  0  0
   -1.6858    0.4279    0.0031 C   0  0  0  0  0  0  0  0  0  0  0  0
   -0.3159    0.6114   -0.6080 C   0  0  0  0  0  0  0  0  0  0  0  0
    0.8187    1.1168    0.2036 C   0  0  0  0  0  0  0  0  0  0  0  0
    1.7182   -0.0458    0.3832 C   0  0  0  0  0  0  0  0  0  0  0  0
    1.1880   -1.1507   -0.1023 C   0  0  0  0  0  0  0  0  0  0  0  0
   -0.1514   -0.8936   -0.6828 C   0  0  0  0  0  0  0  0  0  0  0  0
   -0.1190   -0.0517   -1.7866 O   0  0  0  0  0  0  0  0  0  0  0  0
   -1.8690    0.9246    0.9557 H   0  0  0  0  0  0  0  0  0  0  0  0
   -2.4760    0.6283   -0.7711 H   0  0  0  0  0  0  0  0  0  0  0  0
    1.3172    1.9332   -0.3991 H   0  0  0  0  0  0  0  0  0  0  0  0
    0.4989    1.5291    1.1874 H   0  0  0  0  0  0  0  0  0  0  0  0
    2.7094    0.0596    0.8752 H   0  0  0  0  0  0  0  0  0  0  0  0
    1.6605   -2.1172   -0.0832 H   0  0  0  0  0  0  0  0  0  0  0  0
  1  2  2  0
  2  3  1  0
  3  4  1  0
  4  5  1  0
  5  6  1  0
  6  7  2  0
  7  8  1  0
  8  9  1  0
  8  2  1  0
  8  4  1  0
  9  4  1  0
  3 10  1  0
  3 11  1  0
  5 12  1  0
  5 13  1  0
  6 14  1  0
  7 15  1  0
M  END
