
     RDKit          3D

 17 18  0  0  0  0  0  0  0  0999 V2000
    3.6011   -0.6298   -0.1969 O   0  0  0  0  0  0  0  0  0  0  0  0
    2.3481   -0.4588   -0.2030 C   0  0  0  0  0  0  0  0  0  0  0  0
    1.6237    0.6816   -0.5082 O   0  0  0  0  0  0  0  0  0  0  0  0
    0.3516    0.2243   -0.9581 C   0  0  0  0  0  0  0  0  0  0  0  0
   -0.7644    1.1429   -0.5567 C   0  0  0  0  0  0  0  0  0  0  0  0
   -1.5631    0.3966    0.5211 C   0  0  0  0  0  0  0  0  0  0  0  0
   -0.4257   -0.4090    1.1645 C   0  0  0  0  0  0  0  0  0  0  0  0
    0.1913   -1.0281   -0.0958 C   0  0  0  0  0  0  0  0  0  0  0  0
    1.4793   -1.5082    0.1311 O   0  0  0  0  0  0  0  0  0  0  0  0
    0.4045    0.0026   -2.0218 H   0  0  0  0  0  0  0  0  0  0  0  0
   -1.4442    1.3323   -1.4054 H   0  0  0  0  0  0  0  0  0  0  0  0
   -0.4327    2.0947   -0.1187 H   0  0  0  0  0  0  0  0  0  0  0  0
   -2.2481   -0.3429    0.0722 H   0  0  0  0  0  0  0  0  0  0  0  0
   -2.0316    1.0728    1.2339 H   0  0  0  0  0  0  0  0  0  0  0  0
    0.2457    0.3316    1.6167 H   0  0  0  0  0  0  0  0  0  0  0  0
   -0.8227   -1.1579    1.8466 H   0  0  0  0  0  0  0  0  0  0  0  0
   -0.5128   -1.7446   -0.5216 H   0  0  0  0  0  0  0  0  0  0  0  0
  1  2  2  0
  2  3  1  0
  3  4  1  0
  4  5  1  0
  5  6  1  0
  6  7  1  0
  7  8  1  0
  8  9  1  0
  9  2  1  0
  8  4  1  0
  4 10  1  0
  5 11  1  0
  5 12  1  0
  6 13  1  0
  6 14  1  0
  7 15  1  0
  7 16  1  0
  8 17  1  0
M  END
