
     RDKit          3D

 17 18  0  0  0  0  0  0  0  0999 V2000
   -0.5427   -2.5817   -0.3279 O   0  0  0  0  0  0  0  0  0  0  0  0
   -0.4210   -1.3863   -0.2160 C   0  0  0  0  0  0  0  0  0  0  0  0
   -1.6265   -0.5383   -0.3649 C   0  0  0  0  0  0  0  0  0  0  0  0
   -1.5199    0.6421    0.5583 C   0  0  0  0  0  0  0  0  0  0  0  0
   -0.2537    1.3618    0.2391 C   0  0  0  0  0  0  0  0  0  0  0  0
    0.8479    0.7017    0.0121 C   0  0  0  0  0  0  0  0  0  0  0  0
    2.2511    0.4609   -0.3008 C   0  0  0  0  0  0  0  0  0  0  0  0
    1.8034   -0.7018   -0.9852 O   0  0  0  0  0  0  0  0  0  0  0  0
    0.8877   -0.8114    0.0587 C   0  0  0  0  0  0  0  0  0  0  0  0
   -2.5604   -1.0897   -0.0593 H   0  0  0  0  0  0  0  0  0  0  0  0
   -1.8082   -0.2459   -1.4199 H   0  0  0  0  0  0  0  0  0  0  0  0
   -1.4377    0.2533    1.5877 H   0  0  0  0  0  0  0  0  0  0  0  0
   -2.3701    1.3165    0.4572 H   0  0  0  0  0  0  0  0  0  0  0  0
   -0.2674    2.4661    0.1986 H   0  0  0  0  0  0  0  0  0  0  0  0
    2.7536    1.1875   -0.9676 H   0  0  0  0  0  0  0  0  0  0  0  0
    2.8533    0.1200    0.5612 H   0  0  0  0  0  0  0  0  0  0  0  0
    1.4108   -1.1547    0.9688 H   0  0  0  0  0  0  0  0  0  0  0  0
  1  2  2  0
  2  3  1  0
  3  4  1  0
  4  5  1  0
  5  6  2  0
  6  7  1  0
  7  8  1  0
  8  9  1  0
  9  2  1  0
  9  6  1  0
  3 10  1  0
  3 11  1  0
  4 12  1  0
  4 13  1  0
  5 14  1  0
  7 15  1  0
  7 16  1  0
  9 17  1  0
M  END
