
     RDKit          3D

 15 17  0  0  0  0  0  0  0  0999 V2000
   -0.0148    2.5759   -0.3037 O   0  0  0  0  0  0  0  0  0  0  0  0
   -0.4655    1.4510    0.0113 C   0  0  0  0  0  0  0  0  0  0  0  0
   -1.7248    0.9483   -0.3178 O   0  0  0  0  0  0  0  0  0  0  0  0
   -1.4699   -0.4777   -0.4713 C   0  0  0  0  0  0  0  0  0  0  0  0
   -0.1803   -0.9884   -0.9031 C   0  0  0  0  0  0  0  0  0  0  0  0
    1.0378   -1.3540   -0.3425 O   0  0  0  0  0  0  0  0  0  0  0  0
    1.5187   -0.1038    0.1514 C   0  0  0  0  0  0  0  0  0  0  0  0
    0.2954    0.4539    0.8065 C   0  0  0  0  0  0  0  0  0  0  0  0
   -0.6305   -0.7156    0.5772 C   0  0  0  0  0  0  0  0  0  0  0  0
   -2.3707   -1.0257   -0.7429 H   0  0  0  0  0  0  0  0  0  0  0  0
    0.1607   -0.1868   -1.5940 H   0  0  0  0  0  0  0  0  0  0  0  0
    1.7226    0.4966   -0.7585 H   0  0  0  0  0  0  0  0  0  0  0  0
    2.3766   -0.2385    0.8029 H   0  0  0  0  0  0  0  0  0  0  0  0
    0.4113    0.7274    1.8543 H   0  0  0  0  0  0  0  0  0  0  0  0
   -0.6666   -1.5628    1.2305 H   0  0  0  0  0  0  0  0  0  0  0  0
  1  2  2  0
  2  3  1  0
  3  4  1  0
  4  5  1  0
  5  6  1  0
  6  7  1  0
  7  8  1  0
  8  9  1  0
  8  2  1  0
  9  4  1  0
  9  5  1  0
  4 10  1  0
  5 11  1  0
  7 12  1  0
  7 13  1  0
  8 14  1  0
  9 15  1  0
M  END
