
     RDKit          3D

 19 20  0  0  0  0  0  0  0  0999 V2000
    2.2646   -2.0464    0.1295 O   0  0  0  0  0  0  0  0  0  0  0  0
    1.8592   -0.9232   -0.0004 C   0  0  0  0  0  0  0  0  0  0  0  0
    1.8803   -0.0245   -1.2002 C   0  0  0  0  0  0  0  0  0  0  0  0
    0.6237    0.5249   -1.1766 O   0  0  0  0  0  0  0  0  0  0  0  0
    0.2325    0.7216    0.1174 C   0  0  0  0  0  0  0  0  0  0  0  0
   -1.1611    0.1577    0.3923 C   0  0  0  0  0  0  0  0  0  0  0  0
   -2.2941    0.7065   -0.4053 C   0  0  0  0  0  0  0  0  0  0  0  0
   -1.8136   -0.6738   -0.6724 C   0  0  0  0  0  0  0  0  0  0  0  0
    1.1864   -0.0371    1.0173 C   0  0  0  0  0  0  0  0  0  0  0  0
    2.6937    0.7206   -1.0049 H   0  0  0  0  0  0  0  0  0  0  0  0
    2.0778   -0.6059   -2.1137 H   0  0  0  0  0  0  0  0  0  0  0  0
    0.2800    1.8063    0.3567 H   0  0  0  0  0  0  0  0  0  0  0  0
   -1.3895   -0.1785    1.4337 H   0  0  0  0  0  0  0  0  0  0  0  0
   -3.2731    0.8094    0.1094 H   0  0  0  0  0  0  0  0  0  0  0  0
   -2.1375    1.4327   -1.2086 H   0  0  0  0  0  0  0  0  0  0  0  0
   -1.1607   -0.9079   -1.5383 H   0  0  0  0  0  0  0  0  0  0  0  0
   -2.4665   -1.5225   -0.3899 H   0  0  0  0  0  0  0  0  0  0  0  0
    1.9180    0.6556    1.4758 H   0  0  0  0  0  0  0  0  0  0  0  0
    0.6801   -0.6155    1.7991 H   0  0  0  0  0  0  0  0  0  0  0  0
  1  2  2  0
  2  3  1  0
  3  4  1  0
  4  5  1  0
  5  6  1  0
  6  7  1  0
  7  8  1  0
  5  9  1  0
  9  2  1  0
  8  6  1  0
  3 10  1  0
  3 11  1  0
  5 12  1  0
  6 13  1  0
  7 14  1  0
  7 15  1  0
  8 16  1  0
  8 17  1  0
  9 18  1  0
  9 19  1  0
M  END
