
     RDKit          3D

 18 18  0  0  0  0  0  0  0  0999 V2000
   -1.2606    2.6251   -0.2416 O   0  0  0  0  0  0  0  0  0  0  0  0
   -0.6921    1.5003   -0.0889 C   0  0  0  0  0  0  0  0  0  0  0  0
    0.7431    1.5468   -0.0697 C   0  0  0  0  0  0  0  0  0  0  0  0
    1.5999    0.5671   -0.0433 C   0  0  0  0  0  0  0  0  0  0  0  0
    1.4444   -0.9073   -0.0235 C   0  0  0  0  0  0  0  0  0  0  0  0
    0.0801   -1.2364    0.5297 C   0  0  0  0  0  0  0  0  0  0  0  0
   -1.0046   -0.8699   -0.4655 C   0  0  0  0  0  0  0  0  0  0  0  0
   -1.6604    0.3896    0.0353 C   0  0  0  0  0  0  0  0  0  0  0  0
    1.1709    2.5488   -0.0787 H   0  0  0  0  0  0  0  0  0  0  0  0
    2.6415    0.9086   -0.0340 H   0  0  0  0  0  0  0  0  0  0  0  0
    2.1906   -1.3429    0.6948 H   0  0  0  0  0  0  0  0  0  0  0  0
    1.5995   -1.2691   -1.0500 H   0  0  0  0  0  0  0  0  0  0  0  0
   -0.0173   -0.6411    1.4819 H   0  0  0  0  0  0  0  0  0  0  0  0
   -0.0219   -2.3082    0.8150 H   0  0  0  0  0  0  0  0  0  0  0  0
   -1.7163   -1.6997   -0.6232 H   0  0  0  0  0  0  0  0  0  0  0  0
   -0.5419   -0.6190   -1.4493 H   0  0  0  0  0  0  0  0  0  0  0  0
   -1.9464    0.1911    1.1032 H   0  0  0  0  0  0  0  0  0  0  0  0
   -2.6087    0.6162   -0.4921 H   0  0  0  0  0  0  0  0  0  0  0  0
  1  2  2  0
  2  3  1  0
  3  4  2  0
  4  5  1  0
  5  6  1  0
  6  7  1  0
  7  8  1  0
  8  2  1  0
  3  9  1  0
  4 10  1  0
  5 11  1  0
  5 12  1  0
  6 13  1  0
  6 14  1  0
  7 15  1  0
  7 16  1  0
  8 17  1  0
  8 18  1  0
M  END
