
     RDKit          3D

 16 17  0  0  0  0  0  0  0  0999 V2000
    0.6556    0.0826   -2.7275 O   0  0  0  0  0  0  0  0  0  0  0  0
    0.1496    0.1138   -1.6350 C   0  0  0  0  0  0  0  0  0  0  0  0
    0.1148   -0.9035   -0.5303 C   0  0  0  0  0  0  0  0  0  0  0  0
    1.4428   -0.8689    0.2023 C   0  0  0  0  0  0  0  0  0  0  0  0
    1.6273    0.4161    0.7288 O   0  0  0  0  0  0  0  0  0  0  0  0
   -0.8996   -0.0954    0.2157 C   0  0  0  0  0  0  0  0  0  0  0  0
   -2.0253    0.5793   -0.4613 C   0  0  0  0  0  0  0  0  0  0  0  0
   -0.6411    0.9998   -0.7736 C   0  0  0  0  0  0  0  0  0  0  0  0
   -0.2036   -1.9106   -0.8388 H   0  0  0  0  0  0  0  0  0  0  0  0
    1.3224   -1.5512    1.0860 H   0  0  0  0  0  0  0  0  0  0  0  0
    2.2897   -1.1757   -0.4454 H   0  0  0  0  0  0  0  0  0  0  0  0
    2.3334    0.9029    0.2038 H   0  0  0  0  0  0  0  0  0  0  0  0
   -0.7533    0.0707    1.2912 H   0  0  0  0  0  0  0  0  0  0  0  0
   -2.6102    1.2787    0.1555 H   0  0  0  0  0  0  0  0  0  0  0  0
   -2.5655    0.0901   -1.3092 H   0  0  0  0  0  0  0  0  0  0  0  0
   -0.2371    1.9714   -0.4329 H   0  0  0  0  0  0  0  0  0  0  0  0
  1  2  2  0
  2  3  1  0
  3  4  1  0
  4  5  1  0
  3  6  1  0
  6  7  1  0
  7  8  1  0
  8  2  1  0
  8  6  1  0
  3  9  1  0
  4 10  1  0
  4 11  1  0
  5 12  1  0
  6 13  1  0
  7 14  1  0
  7 15  1  0
  8 16  1  0
M  END
