
     RDKit          3D

 17 18  0  0  0  0  0  0  0  0999 V2000
    3.1347    0.4782    0.6903 O   0  0  0  0  0  0  0  0  0  0  0  0
    2.0509    0.4907    0.0621 C   0  0  0  0  0  0  0  0  0  0  0  0
    1.3160    1.4798   -0.5490 O   0  0  0  0  0  0  0  0  0  0  0  0
    0.2917    0.5727   -0.9177 C   0  0  0  0  0  0  0  0  0  0  0  0
   -0.9618    0.6625   -0.1013 C   0  0  0  0  0  0  0  0  0  0  0  0
   -2.0428    1.1758   -0.7675 O   0  0  0  0  0  0  0  0  0  0  0  0
   -1.1641   -0.7954    0.3023 C   0  0  0  0  0  0  0  0  0  0  0  0
    0.2375   -1.0893    0.8381 C   0  0  0  0  0  0  0  0  0  0  0  0
    1.0929   -0.5642   -0.2921 C   0  0  0  0  0  0  0  0  0  0  0  0
    0.0749    0.4777   -1.9761 H   0  0  0  0  0  0  0  0  0  0  0  0
   -0.7425    1.2483    0.8357 H   0  0  0  0  0  0  0  0  0  0  0  0
   -2.2531    2.0861   -0.3938 H   0  0  0  0  0  0  0  0  0  0  0  0
   -1.2817   -1.4155   -0.5984 H   0  0  0  0  0  0  0  0  0  0  0  0
   -1.9358   -0.9172    1.0611 H   0  0  0  0  0  0  0  0  0  0  0  0
    0.3476   -0.4257    1.7452 H   0  0  0  0  0  0  0  0  0  0  0  0
    0.3895   -2.1428    1.0575 H   0  0  0  0  0  0  0  0  0  0  0  0
    1.4461   -1.3217   -0.9964 H   0  0  0  0  0  0  0  0  0  0  0  0
  1  2  2  0
  2  3  1  0
  3  4  1  0
  4  5  1  0
  5  6  1  0
  5  7  1  0
  7  8  1  0
  8  9  1  0
  9  2  1  0
  9  4  1  0
  4 10  1  0
  5 11  1  0
  6 12  1  0
  7 13  1  0
  7 14  1  0
  8 15  1  0
  8 16  1  0
  9 17  1  0
M  END
