
     RDKit          2D

 17 19  0  0  0  0  0  0  0  0999 V2000
    2.7760    0.0000    0.0000 O   0  0  0  0  0  0  0  0  0  0  0  0
    1.2760    0.0000    0.0000 C   0  0  0  0  0  0  0  0  0  0  0  0
    0.3943    1.2135    0.0000 C   0  0  0  0  0  0  0  0  0  0  0  0
   -1.0323    0.7500    0.0000 C   0  0  0  0  0  0  0  0  0  0  0  0
   -2.5323    0.7500    0.0000 C   0  0  0  0  0  0  0  0  0  0  0  0
   -2.5323   -0.7500    0.0000 C   0  0  0  0  0  0  0  0  0  0  0  0
   -1.5423   -0.2399    0.0000 C   0  0  0  0  0  0  0  0  0  0  0  0
   -1.0323   -0.7500    0.0000 C   0  0  0  0  0  0  0  0  0  0  0  0
    0.3943   -1.2135    0.0000 O   0  0  0  0  0  0  0  0  0  0  0  0
   -0.2158    2.5838    0.0000 H   0  0  0  0  0  0  0  0  0  0  0  0
    1.6933    1.9635    0.0000 H   0  0  0  0  0  0  0  0  0  0  0  0
   -4.0211    0.5672    0.0000 H   0  0  0  0  0  0  0  0  0  0  0  0
   -2.4123    1.7268    0.0000 H   0  0  0  0  0  0  0  0  0  0  0  0
   -3.5929   -1.8107    0.0000 H   0  0  0  0  0  0  0  0  0  0  0  0
   -1.8736    0.4601    0.0000 H   0  0  0  0  0  0  0  0  0  0  0  0
   -4.0211    0.9328    0.0000 H   0  0  0  0  0  0  0  0  0  0  0  0
   -1.2669   -2.2315    0.0000 H   0  0  0  0  0  0  0  0  0  0  0  0
  1  2  2  0
  2  3  1  0
  3  4  1  0
  4  5  1  0
  5  6  1  0
  6  7  1  0
  6  8  1  0
  8  9  1  0
  9  2  1  0
  7  4  1  0
  8  4  1  0
  3 10  1  0
  3 11  1  0
  5 12  1  0
  5 13  1  0
  6 14  1  0
  7 15  1  0
  7 16  1  0
  8 17  1  0
M  END
