
     RDKit          3D

 19 21  0  0  0  0  0  0  0  0999 V2000
    0.2434   -2.2130    0.5530 O   0  0  0  0  0  0  0  0  0  0  0  0
   -0.0157   -1.0149    0.3214 C   0  0  0  0  0  0  0  0  0  0  0  0
    1.0155   -0.0458   -0.1219 C   0  0  0  0  0  0  0  0  0  0  0  0
    2.3058   -0.3311   -0.6516 C   0  0  0  0  0  0  0  0  0  0  0  0
    2.0739    0.4884    0.6570 C   0  0  0  0  0  0  0  0  0  0  0  0
   -0.1313    0.6096   -0.7399 C   0  0  0  0  0  0  0  0  0  0  0  0
   -0.9718    0.0289    0.2703 C   0  0  0  0  0  0  0  0  0  0  0  0
   -2.1675   -0.4572    0.8451 C   0  0  0  0  0  0  0  0  0  0  0  0
   -2.2787    0.4254   -0.1927 C   0  0  0  0  0  0  0  0  0  0  0  0
    2.7890    0.2061   -1.4671 H   0  0  0  0  0  0  0  0  0  0  0  0
    2.7290   -1.3626   -0.4945 H   0  0  0  0  0  0  0  0  0  0  0  0
    2.3199    1.5858    0.5507 H   0  0  0  0  0  0  0  0  0  0  0  0
    2.5349    0.0493    1.5419 H   0  0  0  0  0  0  0  0  0  0  0  0
   -0.2413    0.2953   -1.8200 H   0  0  0  0  0  0  0  0  0  0  0  0
   -0.0009    1.7322   -0.7644 H   0  0  0  0  0  0  0  0  0  0  0  0
   -2.5924   -1.5053    0.7434 H   0  0  0  0  0  0  0  0  0  0  0  0
   -2.3513   -0.1308    1.9172 H   0  0  0  0  0  0  0  0  0  0  0  0
   -2.7577    0.1209   -1.1541 H   0  0  0  0  0  0  0  0  0  0  0  0
   -2.5028    1.5189    0.0059 H   0  0  0  0  0  0  0  0  0  0  0  0
  1  2  2  0
  2  3  1  0
  3  4  1  0
  4  5  1  0
  3  6  1  0
  6  7  1  0
  7  8  1  0
  8  9  1  0
  7  2  1  0
  5  3  1  0
  9  7  1  0
  4 10  1  0
  4 11  1  0
  5 12  1  0
  5 13  1  0
  6 14  1  0
  6 15  1  0
  8 16  1  0
  8 17  1  0
  9 18  1  0
  9 19  1  0
M  END
