
     RDKit          3D

 17 18  0  0  0  0  0  0  0  0999 V2000
    3.3273   -0.4482    1.0327 O   0  0  0  0  0  0  0  0  0  0  0  0
    2.3362   -0.2381    0.3190 C   0  0  0  0  0  0  0  0  0  0  0  0
    1.2902   -1.0237   -0.4156 C   0  0  0  0  0  0  0  0  0  0  0  0
    0.4860    0.1890   -0.1138 C   0  0  0  0  0  0  0  0  0  0  0  0
   -0.1353    0.1147    1.2312 C   0  0  0  0  0  0  0  0  0  0  0  0
   -1.4482    0.2058    1.1205 C   0  0  0  0  0  0  0  0  0  0  0  0
   -1.8474    0.3494   -0.2942 C   0  0  0  0  0  0  0  0  0  0  0  0
   -0.5792    0.5835   -1.0709 C   0  0  0  0  0  0  0  0  0  0  0  0
    1.6917    0.9126   -0.1639 O   0  0  0  0  0  0  0  0  0  0  0  0
    0.9304   -1.9026    0.1226 H   0  0  0  0  0  0  0  0  0  0  0  0
    1.6028   -1.1790   -1.4641 H   0  0  0  0  0  0  0  0  0  0  0  0
    0.4573    0.0015    2.1385 H   0  0  0  0  0  0  0  0  0  0  0  0
   -2.1249    0.1770    1.9660 H   0  0  0  0  0  0  0  0  0  0  0  0
   -2.3976   -0.5320   -0.6684 H   0  0  0  0  0  0  0  0  0  0  0  0
   -2.5327    1.2293   -0.3994 H   0  0  0  0  0  0  0  0  0  0  0  0
   -0.5448    1.6518   -1.3828 H   0  0  0  0  0  0  0  0  0  0  0  0
   -0.5119   -0.0910   -1.9575 H   0  0  0  0  0  0  0  0  0  0  0  0
  1  2  2  0
  2  3  1  0
  3  4  1  0
  4  5  1  0
  5  6  2  0
  6  7  1  0
  7  8  1  0
  4  9  1  0
  9  2  1  0
  8  4  1  0
  3 10  1  0
  3 11  1  0
  5 12  1  0
  6 13  1  0
  7 14  1  0
  7 15  1  0
  8 16  1  0
  8 17  1  0
M  END
