
     RDKit          3D

 19 20  0  0  0  0  0  0  0  0999 V2000
    0.0108    2.0425    1.2845 O   0  0  0  0  0  0  0  0  0  0  0  0
   -0.4928    1.0615    0.8205 C   0  0  0  0  0  0  0  0  0  0  0  0
   -0.1502   -0.3488    0.5880 C   0  0  0  0  0  0  0  0  0  0  0  0
    0.9732   -0.5204   -0.3663 C   0  0  0  0  0  0  0  0  0  0  0  0
    2.1881    0.1683    0.2048 C   0  0  0  0  0  0  0  0  0  0  0  0
    3.2988    0.0401   -0.6294 O   0  0  0  0  0  0  0  0  0  0  0  0
   -1.5309   -0.6287    0.0721 C   0  0  0  0  0  0  0  0  0  0  0  0
   -2.6520   -0.1681    0.9651 C   0  0  0  0  0  0  0  0  0  0  0  0
   -1.8241    0.8029    0.2114 C   0  0  0  0  0  0  0  0  0  0  0  0
    0.0198   -0.9546    1.5207 H   0  0  0  0  0  0  0  0  0  0  0  0
    1.2042   -1.5842   -0.5692 H   0  0  0  0  0  0  0  0  0  0  0  0
    0.7676   -0.0635   -1.3578 H   0  0  0  0  0  0  0  0  0  0  0  0
    1.9150    1.2530    0.3310 H   0  0  0  0  0  0  0  0  0  0  0  0
    2.3630   -0.2450    1.2181 H   0  0  0  0  0  0  0  0  0  0  0  0
    3.9962   -0.4220   -0.0987 H   0  0  0  0  0  0  0  0  0  0  0  0
   -1.7095   -1.2109   -0.8228 H   0  0  0  0  0  0  0  0  0  0  0  0
   -2.5089   -0.1791    2.0660 H   0  0  0  0  0  0  0  0  0  0  0  0
   -3.6785   -0.4339    0.6428 H   0  0  0  0  0  0  0  0  0  0  0  0
   -2.1898    1.3908   -0.6244 H   0  0  0  0  0  0  0  0  0  0  0  0
  1  2  2  0
  2  3  1  0
  3  4  1  0
  4  5  1  0
  5  6  1  0
  3  7  1  0
  7  8  1  0
  8  9  1  0
  9  2  1  0
  9  7  1  0
  3 10  1  0
  4 11  1  0
  4 12  1  0
  5 13  1  0
  5 14  1  0
  6 15  1  0
  7 16  1  0
  8 17  1  0
  8 18  1  0
  9 19  1  0
M  END
