
     RDKit          3D

 17 18  0  0  0  0  0  0  0  0999 V2000
   -0.6021    2.6818   -0.3125 O   0  0  0  0  0  0  0  0  0  0  0  0
   -0.4261    1.4936   -0.1653 C   0  0  0  0  0  0  0  0  0  0  0  0
   -0.8895    0.3561   -1.0479 C   0  0  0  0  0  0  0  0  0  0  0  0
   -0.2002   -0.8332   -0.4907 C   0  0  0  0  0  0  0  0  0  0  0  0
   -0.8419   -1.1307    0.8706 C   0  0  0  0  0  0  0  0  0  0  0  0
   -0.5739    0.0049    1.6266 O   0  0  0  0  0  0  0  0  0  0  0  0
    0.3067    0.7993    0.9409 C   0  0  0  0  0  0  0  0  0  0  0  0
    1.0869   -0.2178    0.0877 C   0  0  0  0  0  0  0  0  0  0  0  0
    1.8483    0.3860   -0.8724 O   0  0  0  0  0  0  0  0  0  0  0  0
   -0.7360    0.5575   -2.1013 H   0  0  0  0  0  0  0  0  0  0  0  0
   -1.9864    0.2562   -0.8095 H   0  0  0  0  0  0  0  0  0  0  0  0
   -0.0452   -1.6796   -1.1089 H   0  0  0  0  0  0  0  0  0  0  0  0
   -1.9160   -1.2445    0.7094 H   0  0  0  0  0  0  0  0  0  0  0  0
   -0.3596   -2.0124    1.3440 H   0  0  0  0  0  0  0  0  0  0  0  0
    0.9415    1.4352    1.5253 H   0  0  0  0  0  0  0  0  0  0  0  0
    1.6094   -0.9525    0.7131 H   0  0  0  0  0  0  0  0  0  0  0  0
    2.7840    0.1001   -0.9093 H   0  0  0  0  0  0  0  0  0  0  0  0
  1  2  2  0
  2  3  1  0
  3  4  1  0
  4  5  1  0
  5  6  1  0
  6  7  1  0
  7  8  1  0
  8  9  1  0
  7  2  1  0
  8  4  1  0
  3 10  1  0
  3 11  1  0
  4 12  1  0
  5 13  1  0
  5 14  1  0
  7 15  1  0
  8 16  1  0
  9 17  1  0
M  END
