
     RDKit          3D

 15 15  0  0  0  0  0  0  0  0999 V2000
   -1.3262    2.2968   -0.5354 O   0  0  0  0  0  0  0  0  0  0  0  0
   -0.7504    1.1908   -0.3462 C   0  0  0  0  0  0  0  0  0  0  0  0
   -1.4904   -0.0494   -0.0179 C   0  0  0  0  0  0  0  0  0  0  0  0
   -0.6664   -1.2461   -0.3132 C   0  0  0  0  0  0  0  0  0  0  0  0
    0.6467   -1.2686   -0.2096 C   0  0  0  0  0  0  0  0  0  0  0  0
    1.3831   -0.0392    0.2269 C   0  0  0  0  0  0  0  0  0  0  0  0
    1.3939    0.0920    1.5975 O   0  0  0  0  0  0  0  0  0  0  0  0
    0.7012    1.1121   -0.4510 C   0  0  0  0  0  0  0  0  0  0  0  0
    1.3544    1.9804   -1.0877 O   0  0  0  0  0  0  0  0  0  0  0  0
   -2.4017   -0.0916   -0.6770 H   0  0  0  0  0  0  0  0  0  0  0  0
   -1.8241   -0.0322    1.0602 H   0  0  0  0  0  0  0  0  0  0  0  0
   -1.1674   -2.1623   -0.6345 H   0  0  0  0  0  0  0  0  0  0  0  0
    1.1777   -2.1680   -0.4389 H   0  0  0  0  0  0  0  0  0  0  0  0
    2.4190   -0.1167   -0.1281 H   0  0  0  0  0  0  0  0  0  0  0  0
    0.5504    0.5020    1.9548 H   0  0  0  0  0  0  0  0  0  0  0  0
  1  2  2  0
  2  3  1  0
  3  4  1  0
  4  5  2  0
  5  6  1  0
  6  7  1  0
  6  8  1  0
  8  9  2  0
  8  2  1  0
  3 10  1  0
  3 11  1  0
  4 12  1  0
  5 13  1  0
  6 14  1  0
  7 15  1  0
M  END
