
     RDKit          3D

 13 13  0  0  0  0  0  0  0  0999 V2000
    2.6633   -0.9796    0.3066 O   0  0  0  0  0  0  0  0  0  0  0  0
    1.4870   -0.6442    0.1065 C   0  0  0  0  0  0  0  0  0  0  0  0
    1.2154    0.7715   -0.1604 C   0  0  0  0  0  0  0  0  0  0  0  0
   -0.0067    1.1889   -0.3826 C   0  0  0  0  0  0  0  0  0  0  0  0
   -1.1144    0.2238   -0.3656 C   0  0  0  0  0  0  0  0  0  0  0  0
   -0.8171   -0.9057    0.5863 C   0  0  0  0  0  0  0  0  0  0  0  0
    0.3911   -1.5417    0.1192 O   0  0  0  0  0  0  0  0  0  0  0  0
    2.0378    1.4772   -0.1732 H   0  0  0  0  0  0  0  0  0  0  0  0
   -0.2672    2.2349   -0.5856 H   0  0  0  0  0  0  0  0  0  0  0  0
   -2.0999    0.6957   -0.1633 H   0  0  0  0  0  0  0  0  0  0  0  0
   -1.1489   -0.2596   -1.3904 H   0  0  0  0  0  0  0  0  0  0  0  0
   -1.6362   -1.6705    0.4676 H   0  0  0  0  0  0  0  0  0  0  0  0
   -0.7040   -0.5907    1.6347 H   0  0  0  0  0  0  0  0  0  0  0  0
  1  2  2  0
  2  3  1  0
  3  4  2  0
  4  5  1  0
  5  6  1  0
  6  7  1  0
  7  2  1  0
  3  8  1  0
  4  9  1  0
  5 10  1  0
  5 11  1  0
  6 12  1  0
  6 13  1  0
M  END
