
     RDKit          2D

 15 17  0  0  0  0  0  0  0  0999 V2000
   -2.2458    1.6317    0.0000 O   0  0  0  0  0  0  0  0  0  0  0  0
   -1.0323    0.7500    0.0000 C   0  0  0  0  0  0  0  0  0  0  0  0
    0.3943    1.2135    0.0000 C   0  0  0  0  0  0  0  0  0  0  0  0
    1.2760    0.0000    0.0000 O   0  0  0  0  0  0  0  0  0  0  0  0
    0.3943   -1.2135    0.0000 C   0  0  0  0  0  0  0  0  0  0  0  0
    0.3943   -2.7135    0.0000 C   0  0  0  0  0  0  0  0  0  0  0  0
   -1.0323   -3.1771    0.0000 O   0  0  0  0  0  0  0  0  0  0  0  0
   -1.9140   -1.9635    0.0000 C   0  0  0  0  0  0  0  0  0  0  0  0
   -1.0323   -0.7500    0.0000 C   0  0  0  0  0  0  0  0  0  0  0  0
    0.8578    2.6401    0.0000 H   0  0  0  0  0  0  0  0  0  0  0  0
    1.8667   -1.4997    0.0000 H   0  0  0  0  0  0  0  0  0  0  0  0
    1.8941   -2.7397    0.0000 H   0  0  0  0  0  0  0  0  0  0  0  0
    0.7062   -4.1807    0.0000 H   0  0  0  0  0  0  0  0  0  0  0  0
   -3.4140   -1.9635    0.0000 H   0  0  0  0  0  0  0  0  0  0  0  0
   -2.4589   -0.2865    0.0000 H   0  0  0  0  0  0  0  0  0  0  0  0
  1  2  2  0
  2  3  1  0
  3  4  1  0
  4  5  1  0
  5  6  1  0
  6  7  1  0
  7  8  1  0
  8  9  1  0
  9  2  1  0
  8  3  1  0
  9  5  1  0
  3 10  1  0
  5 11  1  0
  6 12  1  0
  6 13  1  0
  8 14  1  0
  9 15  1  0
M  END
