
     RDKit          3D

 15 15  0  0  0  0  0  0  0  0999 V2000
   -0.8540    2.4081   -0.6145 O   0  0  0  0  0  0  0  0  0  0  0  0
   -0.5617    1.2611   -0.3322 C   0  0  0  0  0  0  0  0  0  0  0  0
   -1.4838    0.0955   -0.2763 C   0  0  0  0  0  0  0  0  0  0  0  0
   -0.5000   -1.0569   -0.2720 C   0  0  0  0  0  0  0  0  0  0  0  0
    0.5924   -0.5144    0.6267 C   0  0  0  0  0  0  0  0  0  0  0  0
    1.7161   -1.3018    0.6382 O   0  0  0  0  0  0  0  0  0  0  0  0
    0.8287    0.8561    0.0115 C   0  0  0  0  0  0  0  0  0  0  0  0
   -2.1903    0.0538   -1.1032 H   0  0  0  0  0  0  0  0  0  0  0  0
   -1.9849    0.1443    0.7228 H   0  0  0  0  0  0  0  0  0  0  0  0
   -0.0810   -1.1174   -1.2947 H   0  0  0  0  0  0  0  0  0  0  0  0
   -0.9262   -1.9942    0.0817 H   0  0  0  0  0  0  0  0  0  0  0  0
    0.1889   -0.3258    1.6632 H   0  0  0  0  0  0  0  0  0  0  0  0
    2.5206   -0.8720    0.2912 H   0  0  0  0  0  0  0  0  0  0  0  0
    1.2927    1.5575    0.7482 H   0  0  0  0  0  0  0  0  0  0  0  0
    1.4427    0.8061   -0.8907 H   0  0  0  0  0  0  0  0  0  0  0  0
  1  2  2  0
  2  3  1  0
  3  4  1  0
  4  5  1  0
  5  6  1  0
  5  7  1  0
  7  2  1  0
  3  8  1  0
  3  9  1  0
  4 10  1  0
  4 11  1  0
  5 12  1  0
  6 13  1  0
  7 14  1  0
  7 15  1  0
M  END
