
     RDKit          3D

 15 16  0  0  0  0  0  0  0  0999 V2000
    1.2625    2.4385    0.0449 O   0  0  0  0  0  0  0  0  0  0  0  0
    0.8681    1.2699   -0.2005 C   0  0  0  0  0  0  0  0  0  0  0  0
    1.5842    0.0036    0.0887 C   0  0  0  0  0  0  0  0  0  0  0  0
    2.7244   -0.1303    0.5471 O   0  0  0  0  0  0  0  0  0  0  0  0
    0.5714   -1.0309   -0.3173 C   0  0  0  0  0  0  0  0  0  0  0  0
   -0.5346   -0.9829    0.6755 C   0  0  0  0  0  0  0  0  0  0  0  0
   -1.2931    0.2801    0.2378 C   0  0  0  0  0  0  0  0  0  0  0  0
   -0.3971    0.8059   -0.8361 C   0  0  0  0  0  0  0  0  0  0  0  0
    0.0353   -0.3886   -1.4571 O   0  0  0  0  0  0  0  0  0  0  0  0
    0.9993   -1.9932   -0.5269 H   0  0  0  0  0  0  0  0  0  0  0  0
   -1.1884   -1.8709    0.6642 H   0  0  0  0  0  0  0  0  0  0  0  0
   -0.1374   -0.8387    1.7175 H   0  0  0  0  0  0  0  0  0  0  0  0
   -2.2694   -0.0734   -0.1677 H   0  0  0  0  0  0  0  0  0  0  0  0
   -1.3901    0.9997    1.0494 H   0  0  0  0  0  0  0  0  0  0  0  0
   -0.8349    1.5112   -1.5195 H   0  0  0  0  0  0  0  0  0  0  0  0
  1  2  2  0
  2  3  1  0
  3  4  2  0
  3  5  1  0
  5  6  1  0
  6  7  1  0
  7  8  1  0
  8  9  1  0
  8  2  1  0
  9  5  1  0
  5 10  1  0
  6 11  1  0
  6 12  1  0
  7 13  1  0
  7 14  1  0
  8 15  1  0
M  END
