
     RDKit          3D

 17 20  0  0  0  0  0  0  0  0999 V2000
    2.8521   -1.0131   -0.3609 O   0  0  0  0  0  0  0  0  0  0  0  0
    1.7091   -0.6883   -0.2459 C   0  0  0  0  0  0  0  0  0  0  0  0
    0.5890   -0.7491    0.7691 C   0  0  0  0  0  0  0  0  0  0  0  0
   -0.2897   -1.0179   -0.4432 C   0  0  0  0  0  0  0  0  0  0  0  0
   -1.5458   -0.2847   -0.1663 C   0  0  0  0  0  0  0  0  0  0  0  0
   -1.0097    1.0323    0.3521 C   0  0  0  0  0  0  0  0  0  0  0  0
    0.1799    0.6532    1.1090 C   0  0  0  0  0  0  0  0  0  0  0  0
    0.2534    1.2527   -0.3408 C   0  0  0  0  0  0  0  0  0  0  0  0
    0.6444    0.0047   -1.0689 C   0  0  0  0  0  0  0  0  0  0  0  0
    0.6540   -1.4925    1.5245 H   0  0  0  0  0  0  0  0  0  0  0  0
   -0.2971   -2.0046   -0.8469 H   0  0  0  0  0  0  0  0  0  0  0  0
   -2.2122   -0.1488   -1.0158 H   0  0  0  0  0  0  0  0  0  0  0  0
   -2.0452   -0.7812    0.7150 H   0  0  0  0  0  0  0  0  0  0  0  0
   -1.6654    1.8190    0.6894 H   0  0  0  0  0  0  0  0  0  0  0  0
    0.6367    1.2237    1.9014 H   0  0  0  0  0  0  0  0  0  0  0  0
    0.7785    2.1898   -0.4483 H   0  0  0  0  0  0  0  0  0  0  0  0
    0.7679    0.0046   -2.1235 H   0  0  0  0  0  0  0  0  0  0  0  0
  1  2  2  0
  2  3  1  0
  3  4  1  0
  4  5  1  0
  5  6  1  0
  6  7  1  0
  7  8  1  0
  8  9  1  0
  9  2  1  0
  7  3  1  0
  9  4  1  0
  8  6  1  0
  3 10  1  0
  4 11  1  0
  5 12  1  0
  5 13  1  0
  6 14  1  0
  7 15  1  0
  8 16  1  0
  9 17  1  0
M  END
