
     RDKit          3D

 17 19  0  0  0  0  0  0  0  0999 V2000
    1.9531   -1.7670   -0.9657 O   0  0  0  0  0  0  0  0  0  0  0  0
    1.2118   -0.9386   -0.5267 C   0  0  0  0  0  0  0  0  0  0  0  0
    1.5226    0.4670   -0.2114 C   0  0  0  0  0  0  0  0  0  0  0  0
    0.3972    0.9135    0.7335 C   0  0  0  0  0  0  0  0  0  0  0  0
   -0.7766    1.3953   -0.1028 C   0  0  0  0  0  0  0  0  0  0  0  0
   -1.1879   -0.0379   -0.2713 C   0  0  0  0  0  0  0  0  0  0  0  0
   -0.3755   -0.3279    1.0089 C   0  0  0  0  0  0  0  0  0  0  0  0
   -0.2151   -1.1461   -0.1952 C   0  0  0  0  0  0  0  0  0  0  0  0
   -0.7272   -2.4206   -0.3172 O   0  0  0  0  0  0  0  0  0  0  0  0
    2.5133    0.6190    0.2464 H   0  0  0  0  0  0  0  0  0  0  0  0
    1.4941    1.1257   -1.1129 H   0  0  0  0  0  0  0  0  0  0  0  0
    0.7007    1.5432    1.5567 H   0  0  0  0  0  0  0  0  0  0  0  0
   -1.4889    1.9347    0.5807 H   0  0  0  0  0  0  0  0  0  0  0  0
   -0.5067    1.9448   -1.0203 H   0  0  0  0  0  0  0  0  0  0  0  0
   -2.2427   -0.2801   -0.2535 H   0  0  0  0  0  0  0  0  0  0  0  0
   -0.8737   -0.5731    1.9185 H   0  0  0  0  0  0  0  0  0  0  0  0
   -1.3984   -2.4519   -1.0678 H   0  0  0  0  0  0  0  0  0  0  0  0
  1  2  2  0
  2  3  1  0
  3  4  1  0
  4  5  1  0
  5  6  1  0
  6  7  1  0
  7  8  1  0
  8  9  1  0
  8  2  1  0
  7  4  1  0
  8  6  1  0
  3 10  1  0
  3 11  1  0
  4 12  1  0
  5 13  1  0
  5 14  1  0
  6 15  1  0
  7 16  1  0
  9 17  1  0
M  END
