
     RDKit          3D

 17 18  0  0  0  0  0  0  0  0999 V2000
   -0.2018   -1.3542    2.0281 O   0  0  0  0  0  0  0  0  0  0  0  0
   -0.2865   -0.8676    0.9246 C   0  0  0  0  0  0  0  0  0  0  0  0
    0.7583   -0.1891    0.1182 C   0  0  0  0  0  0  0  0  0  0  0  0
    1.9442    0.2304    0.9331 C   0  0  0  0  0  0  0  0  0  0  0  0
    2.7922    0.9563    0.1037 O   0  0  0  0  0  0  0  0  0  0  0  0
    0.0483    0.8743   -0.4091 O   0  0  0  0  0  0  0  0  0  0  0  0
   -1.0722    0.2693   -0.9365 C   0  0  0  0  0  0  0  0  0  0  0  0
   -2.3072    0.3671   -0.1165 C   0  0  0  0  0  0  0  0  0  0  0  0
   -1.4876   -0.8268    0.0803 C   0  0  0  0  0  0  0  0  0  0  0  0
    1.0112   -0.8628   -0.7157 H   0  0  0  0  0  0  0  0  0  0  0  0
    2.4912   -0.6846    1.2267 H   0  0  0  0  0  0  0  0  0  0  0  0
    1.6112    0.8365    1.7870 H   0  0  0  0  0  0  0  0  0  0  0  0
    3.2137    1.6938    0.5825 H   0  0  0  0  0  0  0  0  0  0  0  0
   -1.0910   -0.0092   -1.9983 H   0  0  0  0  0  0  0  0  0  0  0  0
   -3.2797    0.1920   -0.6495 H   0  0  0  0  0  0  0  0  0  0  0  0
   -2.3435    1.1730    0.6180 H   0  0  0  0  0  0  0  0  0  0  0  0
   -1.8009   -1.7982   -0.3789 H   0  0  0  0  0  0  0  0  0  0  0  0
  1  2  2  0
  2  3  1  0
  3  4  1  0
  4  5  1  0
  3  6  1  0
  6  7  1  0
  7  8  1  0
  8  9  1  0
  9  2  1  0
  9  7  1  0
  3 10  1  0
  4 11  1  0
  4 12  1  0
  5 13  1  0
  7 14  1  0
  8 15  1  0
  8 16  1  0
  9 17  1  0
M  END
