
     RDKit          3D

 15 17  0  0  0  0  0  0  0  0999 V2000
    0.3913    2.3185   -0.4317 O   0  0  0  0  0  0  0  0  0  0  0  0
    0.0437    1.2324   -0.0725 C   0  0  0  0  0  0  0  0  0  0  0  0
   -1.1307    0.7666    0.7219 C   0  0  0  0  0  0  0  0  0  0  0  0
   -1.6446   -0.3881   -0.0736 C   0  0  0  0  0  0  0  0  0  0  0  0
   -0.3149   -0.9424    0.4054 C   0  0  0  0  0  0  0  0  0  0  0  0
   -0.5472   -0.1930    1.5824 O   0  0  0  0  0  0  0  0  0  0  0  0
    0.6998   -0.1194   -0.3053 C   0  0  0  0  0  0  0  0  0  0  0  0
    2.0707   -0.2016   -0.3456 C   0  0  0  0  0  0  0  0  0  0  0  0
    1.1932   -0.4213   -1.5382 O   0  0  0  0  0  0  0  0  0  0  0  0
   -1.7888    1.4796    1.1448 H   0  0  0  0  0  0  0  0  0  0  0  0
   -1.6398   -0.2367   -1.1853 H   0  0  0  0  0  0  0  0  0  0  0  0
   -2.5366   -0.8951    0.3124 H   0  0  0  0  0  0  0  0  0  0  0  0
   -0.2062   -1.9963    0.5046 H   0  0  0  0  0  0  0  0  0  0  0  0
    2.7066    0.7004   -0.5406 H   0  0  0  0  0  0  0  0  0  0  0  0
    2.7035   -1.1036   -0.1788 H   0  0  0  0  0  0  0  0  0  0  0  0
  1  2  2  0
  2  3  1  0
  3  4  1  0
  4  5  1  0
  5  6  1  0
  5  7  1  0
  7  8  1  0
  8  9  1  0
  7  2  1  0
  6  3  1  0
  9  7  1  0
  3 10  1  0
  4 11  1  0
  4 12  1  0
  5 13  1  0
  8 14  1  0
  8 15  1  0
M  END
