
     RDKit          3D

 17 19  0  0  0  0  0  0  0  0999 V2000
   -0.7134   -2.6399    0.8724 O   0  0  0  0  0  0  0  0  0  0  0  0
   -0.4798   -1.6276    0.2744 C   0  0  0  0  0  0  0  0  0  0  0  0
    0.9177   -1.1279   -0.0568 C   0  0  0  0  0  0  0  0  0  0  0  0
    0.6980    0.3899   -0.1879 C   0  0  0  0  0  0  0  0  0  0  0  0
    1.7306    1.3372   -0.1630 C   0  0  0  0  0  0  0  0  0  0  0  0
    1.0143    1.0170   -1.3565 O   0  0  0  0  0  0  0  0  0  0  0  0
   -0.5796    0.5519    0.5240 C   0  0  0  0  0  0  0  0  0  0  0  0
   -1.9325    0.5793    0.1588 C   0  0  0  0  0  0  0  0  0  0  0  0
   -1.3083   -0.5806   -0.3139 C   0  0  0  0  0  0  0  0  0  0  0  0
    1.6325   -1.3765    0.7207 H   0  0  0  0  0  0  0  0  0  0  0  0
    1.1483   -1.5808   -1.0426 H   0  0  0  0  0  0  0  0  0  0  0  0
    1.5348    2.3740    0.1803 H   0  0  0  0  0  0  0  0  0  0  0  0
    2.8178    1.1007   -0.1700 H   0  0  0  0  0  0  0  0  0  0  0  0
   -0.4004    0.2993    1.6187 H   0  0  0  0  0  0  0  0  0  0  0  0
   -2.7407    0.4730    0.9337 H   0  0  0  0  0  0  0  0  0  0  0  0
   -2.2652    1.3800   -0.5645 H   0  0  0  0  0  0  0  0  0  0  0  0
   -1.0743   -0.5691   -1.4278 H   0  0  0  0  0  0  0  0  0  0  0  0
  1  2  2  0
  2  3  1  0
  3  4  1  0
  4  5  1  0
  5  6  1  0
  4  7  1  0
  7  8  1  0
  8  9  1  0
  9  2  1  0
  6  4  1  0
  9  7  1  0
  3 10  1  0
  3 11  1  0
  5 12  1  0
  5 13  1  0
  7 14  1  0
  8 15  1  0
  8 16  1  0
  9 17  1  0
M  END
