
     RDKit          3D

 17 17  0  0  0  0  0  0  0  0999 V2000
    1.0681    2.0856    1.4496 O   0  0  0  0  0  0  0  0  0  0  0  0
    0.7230    1.0280    0.8860 C   0  0  0  0  0  0  0  0  0  0  0  0
    1.6961   -0.0427    0.7369 C   0  0  0  0  0  0  0  0  0  0  0  0
    1.4635   -0.9382   -0.2412 C   0  0  0  0  0  0  0  0  0  0  0  0
    0.2635   -0.8092   -1.1067 C   0  0  0  0  0  0  0  0  0  0  0  0
   -0.9078   -0.4435   -0.2574 C   0  0  0  0  0  0  0  0  0  0  0  0
   -1.1666   -1.4351    0.6639 O   0  0  0  0  0  0  0  0  0  0  0  0
   -0.6690    0.9069    0.3903 C   0  0  0  0  0  0  0  0  0  0  0  0
   -0.7846    1.8549   -0.6546 O   0  0  0  0  0  0  0  0  0  0  0  0
    2.5717   -0.1395    1.3658 H   0  0  0  0  0  0  0  0  0  0  0  0
    2.1923   -1.7245   -0.3388 H   0  0  0  0  0  0  0  0  0  0  0  0
    0.3860   -0.0249   -1.8808 H   0  0  0  0  0  0  0  0  0  0  0  0
    0.0998   -1.8052   -1.5701 H   0  0  0  0  0  0  0  0  0  0  0  0
   -1.7993   -0.2895   -0.9216 H   0  0  0  0  0  0  0  0  0  0  0  0
   -2.0285   -1.3056    1.1268 H   0  0  0  0  0  0  0  0  0  0  0  0
   -1.3742    1.1452    1.1837 H   0  0  0  0  0  0  0  0  0  0  0  0
   -1.7340    1.9374   -0.8318 H   0  0  0  0  0  0  0  0  0  0  0  0
  1  2  2  0
  2  3  1  0
  3  4  2  0
  4  5  1  0
  5  6  1  0
  6  7  1  0
  6  8  1  0
  8  9  1  0
  8  2  1  0
  3 10  1  0
  4 11  1  0
  5 12  1  0
  5 13  1  0
  6 14  1  0
  7 15  1  0
  8 16  1  0
  9 17  1  0
M  END
