
     RDKit          3D

 19 20  0  0  0  0  0  0  0  0999 V2000
    2.0825   -0.1158   -1.5559 O   0  0  0  0  0  0  0  0  0  0  0  0
    1.5399   -0.2428   -0.4799 C   0  0  0  0  0  0  0  0  0  0  0  0
    1.2485    0.7436    0.6030 C   0  0  0  0  0  0  0  0  0  0  0  0
    0.0775    1.5697    0.1489 C   0  0  0  0  0  0  0  0  0  0  0  0
   -1.2203    0.8121    0.1689 C   0  0  0  0  0  0  0  0  0  0  0  0
   -1.1078   -0.3687   -0.7589 C   0  0  0  0  0  0  0  0  0  0  0  0
   -0.5298   -1.5205    0.0499 C   0  0  0  0  0  0  0  0  0  0  0  0
    0.8958   -1.2415    0.3915 C   0  0  0  0  0  0  0  0  0  0  0  0
    0.8922   -0.2964    1.4421 O   0  0  0  0  0  0  0  0  0  0  0  0
    2.0892    1.3496    0.9395 H   0  0  0  0  0  0  0  0  0  0  0  0
    0.2832    1.8084   -0.9358 H   0  0  0  0  0  0  0  0  0  0  0  0
   -0.0199    2.5336    0.6717 H   0  0  0  0  0  0  0  0  0  0  0  0
   -1.4860    0.4655    1.1834 H   0  0  0  0  0  0  0  0  0  0  0  0
   -1.9947    1.4871   -0.2662 H   0  0  0  0  0  0  0  0  0  0  0  0
   -2.0951   -0.7246   -1.1317 H   0  0  0  0  0  0  0  0  0  0  0  0
   -0.3927   -0.1650   -1.5979 H   0  0  0  0  0  0  0  0  0  0  0  0
   -0.7024   -2.4728   -0.4574 H   0  0  0  0  0  0  0  0  0  0  0  0
   -1.1126   -1.5077    1.0152 H   0  0  0  0  0  0  0  0  0  0  0  0
    1.5525   -2.1137    0.5697 H   0  0  0  0  0  0  0  0  0  0  0  0
  1  2  2  0
  2  3  1  0
  3  4  1  0
  4  5  1  0
  5  6  1  0
  6  7  1  0
  7  8  1  0
  8  9  1  0
  8  2  1  0
  9  3  1  0
  3 10  1  0
  4 11  1  0
  4 12  1  0
  5 13  1  0
  5 14  1  0
  6 15  1  0
  6 16  1  0
  7 17  1  0
  7 18  1  0
  8 19  1  0
M  END
