
     RDKit          3D

 17 19  0  0  0  0  0  0  0  0999 V2000
   -2.1519    1.8302   -0.0634 O   0  0  0  0  0  0  0  0  0  0  0  0
   -1.4948    0.8012   -0.0203 C   0  0  0  0  0  0  0  0  0  0  0  0
   -1.7139   -0.4272    0.8318 C   0  0  0  0  0  0  0  0  0  0  0  0
   -0.2825   -0.8230    0.4483 C   0  0  0  0  0  0  0  0  0  0  0  0
   -0.1159   -1.1644   -0.9775 C   0  0  0  0  0  0  0  0  0  0  0  0
   -0.2974    0.2613   -0.6777 C   0  0  0  0  0  0  0  0  0  0  0  0
    0.9794    1.0529   -0.4326 C   0  0  0  0  0  0  0  0  0  0  0  0
    1.7427    0.1174    0.4734 C   0  0  0  0  0  0  0  0  0  0  0  0
    0.7437   -0.4210    1.2546 O   0  0  0  0  0  0  0  0  0  0  0  0
   -1.8444   -0.2299    1.8958 H   0  0  0  0  0  0  0  0  0  0  0  0
   -2.4837   -1.0422    0.3364 H   0  0  0  0  0  0  0  0  0  0  0  0
   -0.9936   -1.6756   -1.4454 H   0  0  0  0  0  0  0  0  0  0  0  0
    0.8660   -1.4857   -1.3203 H   0  0  0  0  0  0  0  0  0  0  0  0
    1.5419    1.1888   -1.3951 H   0  0  0  0  0  0  0  0  0  0  0  0
    0.7957    2.0069    0.0673 H   0  0  0  0  0  0  0  0  0  0  0  0
    2.4447    0.6986    1.0894 H   0  0  0  0  0  0  0  0  0  0  0  0
    2.2640   -0.6882   -0.0648 H   0  0  0  0  0  0  0  0  0  0  0  0
  1  2  2  0
  2  3  1  0
  3  4  1  0
  4  5  1  0
  5  6  1  0
  6  7  1  0
  7  8  1  0
  8  9  1  0
  6  2  1  0
  6  4  1  0
  9  4  1  0
  3 10  1  0
  3 11  1  0
  5 12  1  0
  5 13  1  0
  7 14  1  0
  7 15  1  0
  8 16  1  0
  8 17  1  0
M  END
