
     RDKit          3D

 21 22  0  0  0  0  0  0  0  0999 V2000
    0.1567   -1.1426   -2.3731 O   0  0  0  0  0  0  0  0  0  0  0  0
    0.1936   -0.9616   -1.1623 C   0  0  0  0  0  0  0  0  0  0  0  0
    1.5037   -0.8310   -0.4894 C   0  0  0  0  0  0  0  0  0  0  0  0
    1.6435    0.3209    0.4099 C   0  0  0  0  0  0  0  0  0  0  0  0
    0.5155    1.2622    0.5562 C   0  0  0  0  0  0  0  0  0  0  0  0
   -0.8456    0.7694    0.6683 C   0  0  0  0  0  0  0  0  0  0  0  0
   -1.0436   -0.6810    0.9551 C   0  0  0  0  0  0  0  0  0  0  0  0
   -1.1348   -0.8997   -0.5379 C   0  0  0  0  0  0  0  0  0  0  0  0
   -1.5726    0.5674   -0.6521 C   0  0  0  0  0  0  0  0  0  0  0  0
    2.2787   -0.8699   -1.3118 H   0  0  0  0  0  0  0  0  0  0  0  0
    1.6675   -1.8067    0.0577 H   0  0  0  0  0  0  0  0  0  0  0  0
    1.9739   -0.0372    1.4133 H   0  0  0  0  0  0  0  0  0  0  0  0
    2.5335    0.9164    0.0378 H   0  0  0  0  0  0  0  0  0  0  0  0
    0.7377    1.9126    1.4469 H   0  0  0  0  0  0  0  0  0  0  0  0
    0.5519    1.9910   -0.3098 H   0  0  0  0  0  0  0  0  0  0  0  0
   -1.4971    1.3920    1.3240 H   0  0  0  0  0  0  0  0  0  0  0  0
   -1.9437   -0.9208    1.5282 H   0  0  0  0  0  0  0  0  0  0  0  0
   -0.0963   -1.1192    1.3795 H   0  0  0  0  0  0  0  0  0  0  0  0
   -1.8830   -1.6254   -0.8725 H   0  0  0  0  0  0  0  0  0  0  0  0
   -2.6592    0.6354   -0.6119 H   0  0  0  0  0  0  0  0  0  0  0  0
   -1.0803    1.1277   -1.4562 H   0  0  0  0  0  0  0  0  0  0  0  0
  1  2  2  0
  2  3  1  0
  3  4  1  0
  4  5  1  0
  5  6  1  0
  6  7  1  0
  7  8  1  0
  8  9  1  0
  8  2  1  0
  9  6  1  0
  3 10  1  0
  3 11  1  0
  4 12  1  0
  4 13  1  0
  5 14  1  0
  5 15  1  0
  6 16  1  0
  7 17  1  0
  7 18  1  0
  8 19  1  0
  9 20  1  0
  9 21  1  0
M  END
