
     RDKit          3D

 19 20  0  0  0  0  0  0  0  0999 V2000
    1.8537   -2.4146   -0.1405 O   0  0  0  0  0  0  0  0  0  0  0  0
    1.5079   -1.2256   -0.0359 C   0  0  0  0  0  0  0  0  0  0  0  0
    2.2047   -0.2494    0.6386 O   0  0  0  0  0  0  0  0  0  0  0  0
    1.8639    1.0464    0.1603 C   0  0  0  0  0  0  0  0  0  0  0  0
    0.6918    0.8215   -0.7708 C   0  0  0  0  0  0  0  0  0  0  0  0
    0.2918   -0.6187   -0.6065 C   0  0  0  0  0  0  0  0  0  0  0  0
   -0.8388   -0.8322    0.3439 C   0  0  0  0  0  0  0  0  0  0  0  0
   -2.1834   -0.2480   -0.1215 C   0  0  0  0  0  0  0  0  0  0  0  0
   -1.4947    0.2456    1.0850 C   0  0  0  0  0  0  0  0  0  0  0  0
    1.6060    1.7320    0.9911 H   0  0  0  0  0  0  0  0  0  0  0  0
    2.7503    1.4526   -0.3861 H   0  0  0  0  0  0  0  0  0  0  0  0
   -0.1166    1.5358   -0.6507 H   0  0  0  0  0  0  0  0  0  0  0  0
    1.0931    0.9184   -1.8215 H   0  0  0  0  0  0  0  0  0  0  0  0
    0.0063   -1.0576   -1.5817 H   0  0  0  0  0  0  0  0  0  0  0  0
   -0.9008   -1.8638    0.7714 H   0  0  0  0  0  0  0  0  0  0  0  0
   -3.0764   -0.9271   -0.0441 H   0  0  0  0  0  0  0  0  0  0  0  0
   -2.1624    0.4320   -1.0048 H   0  0  0  0  0  0  0  0  0  0  0  0
   -1.1063    1.2839    1.1153 H   0  0  0  0  0  0  0  0  0  0  0  0
   -1.9903   -0.0312    2.0585 H   0  0  0  0  0  0  0  0  0  0  0  0
  1  2  2  0
  2  3  1  0
  3  4  1  0
  4  5  1  0
  5  6  1  0
  6  7  1  0
  7  8  1  0
  8  9  1  0
  6  2  1  0
  9  7  1  0
  4 10  1  0
  4 11  1  0
  5 12  1  0
  5 13  1  0
  6 14  1  0
  7 15  1  0
  8 16  1  0
  8 17  1  0
  9 18  1  0
  9 19  1  0
M  END
