
     RDKit          3D

 15 16  0  0  0  0  0  0  0  0999 V2000
   -2.0754   -1.6999   -0.9481 O   0  0  0  0  0  0  0  0  0  0  0  0
   -1.1144   -0.9386   -0.6828 C   0  0  0  0  0  0  0  0  0  0  0  0
   -0.0742   -0.5383   -1.5157 O   0  0  0  0  0  0  0  0  0  0  0  0
    0.8642    0.1184   -0.6783 C   0  0  0  0  0  0  0  0  0  0  0  0
    1.2510   -0.8678    0.3953 C   0  0  0  0  0  0  0  0  0  0  0  0
    0.1415   -0.9809    1.2507 O   0  0  0  0  0  0  0  0  0  0  0  0
   -0.8918   -0.2917    0.6228 C   0  0  0  0  0  0  0  0  0  0  0  0
   -0.1186    0.9595    0.1552 C   0  0  0  0  0  0  0  0  0  0  0  0
   -0.8861    1.7828   -0.6155 O   0  0  0  0  0  0  0  0  0  0  0  0
    1.6385    0.6643   -1.1472 H   0  0  0  0  0  0  0  0  0  0  0  0
    1.5992   -1.8285    0.0206 H   0  0  0  0  0  0  0  0  0  0  0  0
    2.0408   -0.3645    1.0126 H   0  0  0  0  0  0  0  0  0  0  0  0
   -1.7425   -0.0756    1.2185 H   0  0  0  0  0  0  0  0  0  0  0  0
    0.3560    1.4075    1.0248 H   0  0  0  0  0  0  0  0  0  0  0  0
   -0.9884    2.6532   -0.1129 H   0  0  0  0  0  0  0  0  0  0  0  0
  1  2  2  0
  2  3  1  0
  3  4  1  0
  4  5  1  0
  5  6  1  0
  6  7  1  0
  7  8  1  0
  8  9  1  0
  7  2  1  0
  8  4  1  0
  4 10  1  0
  5 11  1  0
  5 12  1  0
  7 13  1  0
  8 14  1  0
  9 15  1  0
M  END
