
     RDKit          3D

 16 17  0  0  0  0  0  0  0  0999 V2000
    3.0394    0.0319    0.0876 O   0  0  0  0  0  0  0  0  0  0  0  0
    1.8400   -0.1888    0.1205 C   0  0  0  0  0  0  0  0  0  0  0  0
    0.7251   -0.1156    1.1246 C   0  0  0  0  0  0  0  0  0  0  0  0
   -0.2055    0.0077   -0.0202 C   0  0  0  0  0  0  0  0  0  0  0  0
   -0.7257    1.3252   -0.4001 C   0  0  0  0  0  0  0  0  0  0  0  0
   -2.0315    0.7896   -0.2981 O   0  0  0  0  0  0  0  0  0  0  0  0
   -1.5696   -0.4966    0.0735 C   0  0  0  0  0  0  0  0  0  0  0  0
    0.8020   -0.6685   -0.8605 C   0  0  0  0  0  0  0  0  0  0  0  0
    0.7710    0.7322    1.8141 H   0  0  0  0  0  0  0  0  0  0  0  0
    0.6425   -1.1244    1.6240 H   0  0  0  0  0  0  0  0  0  0  0  0
   -0.4766    1.7180   -1.4011 H   0  0  0  0  0  0  0  0  0  0  0  0
   -0.5847    2.0759    0.4166 H   0  0  0  0  0  0  0  0  0  0  0  0
   -2.0040   -0.7321    1.0635 H   0  0  0  0  0  0  0  0  0  0  0  0
   -1.8864   -1.2229   -0.7066 H   0  0  0  0  0  0  0  0  0  0  0  0
    0.9471   -0.3429   -1.8890 H   0  0  0  0  0  0  0  0  0  0  0  0
    0.7168   -1.7887   -0.7486 H   0  0  0  0  0  0  0  0  0  0  0  0
  1  2  2  0
  2  3  1  0
  3  4  1  0
  4  5  1  0
  5  6  1  0
  6  7  1  0
  4  8  1  0
  8  2  1  0
  7  4  1  0
  3  9  1  0
  3 10  1  0
  5 11  1  0
  5 12  1  0
  7 13  1  0
  7 14  1  0
  8 15  1  0
  8 16  1  0
M  END
