
     RDKit          3D

 15 16  0  0  0  0  0  0  0  0999 V2000
    2.6246   -0.8862    1.3016 O   0  0  0  0  0  0  0  0  0  0  0  0
    1.5670   -0.7842    0.6577 C   0  0  0  0  0  0  0  0  0  0  0  0
    0.4923   -1.6566    0.6395 O   0  0  0  0  0  0  0  0  0  0  0  0
   -0.4869   -0.9973   -0.1808 C   0  0  0  0  0  0  0  0  0  0  0  0
    0.3663   -0.4272   -1.1567 O   0  0  0  0  0  0  0  0  0  0  0  0
    1.1852    0.3081   -0.2626 C   0  0  0  0  0  0  0  0  0  0  0  0
    0.1284    1.2022    0.3654 C   0  0  0  0  0  0  0  0  0  0  0  0
   -0.9919    0.1829    0.5684 C   0  0  0  0  0  0  0  0  0  0  0  0
   -2.1914    0.6200    0.0279 O   0  0  0  0  0  0  0  0  0  0  0  0
   -1.2221   -1.6683   -0.5934 H   0  0  0  0  0  0  0  0  0  0  0  0
    1.9918    0.8264   -0.7410 H   0  0  0  0  0  0  0  0  0  0  0  0
    0.4742    1.6047    1.3376 H   0  0  0  0  0  0  0  0  0  0  0  0
   -0.1284    1.9760   -0.3492 H   0  0  0  0  0  0  0  0  0  0  0  0
   -1.1038   -0.0938    1.6379 H   0  0  0  0  0  0  0  0  0  0  0  0
   -2.7054   -0.2067   -0.2196 H   0  0  0  0  0  0  0  0  0  0  0  0
  1  2  2  0
  2  3  1  0
  3  4  1  0
  4  5  1  0
  5  6  1  0
  6  7  1  0
  7  8  1  0
  8  9  1  0
  6  2  1  0
  8  4  1  0
  4 10  1  0
  6 11  1  0
  7 12  1  0
  7 13  1  0
  8 14  1  0
  9 15  1  0
M  END
