
     RDKit          3D

 14 15  0  0  0  0  0  0  0  0999 V2000
   -2.3469    0.4206    1.7421 O   0  0  0  0  0  0  0  0  0  0  0  0
   -1.3985    0.1544    0.9740 C   0  0  0  0  0  0  0  0  0  0  0  0
   -1.5641    0.1286   -0.5051 C   0  0  0  0  0  0  0  0  0  0  0  0
   -0.4092    0.7269   -1.0351 O   0  0  0  0  0  0  0  0  0  0  0  0
    0.6866   -0.0830   -0.8322 C   0  0  0  0  0  0  0  0  0  0  0  0
    1.7872    0.4100    0.0345 C   0  0  0  0  0  0  0  0  0  0  0  0
    0.8366   -0.6053    0.5396 C   0  0  0  0  0  0  0  0  0  0  0  0
   -0.1298   -0.1341    1.4574 O   0  0  0  0  0  0  0  0  0  0  0  0
   -1.6657   -0.9173   -0.8043 H   0  0  0  0  0  0  0  0  0  0  0  0
   -2.4165    0.7705   -0.7447 H   0  0  0  0  0  0  0  0  0  0  0  0
    0.9819   -0.6814   -1.7075 H   0  0  0  0  0  0  0  0  0  0  0  0
    2.8335    0.0456   -0.1179 H   0  0  0  0  0  0  0  0  0  0  0  0
    1.7023    1.4414    0.3799 H   0  0  0  0  0  0  0  0  0  0  0  0
    1.1025   -1.6769    0.6193 H   0  0  0  0  0  0  0  0  0  0  0  0
  1  2  2  0
  2  3  1  0
  3  4  1  0
  4  5  1  0
  5  6  1  0
  6  7  1  0
  7  8  1  0
  8  2  1  0
  7  5  1  0
  3  9  1  0
  3 10  1  0
  5 11  1  0
  6 12  1  0
  6 13  1  0
  7 14  1  0
M  END
