
     RDKit          3D

 15 17  0  0  0  0  0  0  0  0999 V2000
   -1.9983   -1.7566   -1.0866 O   0  0  0  0  0  0  0  0  0  0  0  0
   -1.1801   -1.0004   -0.5993 C   0  0  0  0  0  0  0  0  0  0  0  0
   -0.2536   -0.9416    0.5828 C   0  0  0  0  0  0  0  0  0  0  0  0
   -0.8596    0.2329    1.3170 C   0  0  0  0  0  0  0  0  0  0  0  0
   -1.0624    1.0972    0.3222 C   0  0  0  0  0  0  0  0  0  0  0  0
   -0.5733    0.3563   -0.8665 C   0  0  0  0  0  0  0  0  0  0  0  0
    0.6907   -0.2323   -0.3153 C   0  0  0  0  0  0  0  0  0  0  0  0
    1.8791    0.3687   -0.1380 C   0  0  0  0  0  0  0  0  0  0  0  0
    1.6480   -0.8014   -1.0561 O   0  0  0  0  0  0  0  0  0  0  0  0
   -0.0203   -1.8113    1.1072 H   0  0  0  0  0  0  0  0  0  0  0  0
   -1.0660    0.3258    2.3748 H   0  0  0  0  0  0  0  0  0  0  0  0
   -1.4678    2.0906    0.2957 H   0  0  0  0  0  0  0  0  0  0  0  0
   -0.6292    0.7593   -1.8283 H   0  0  0  0  0  0  0  0  0  0  0  0
    2.6589    0.0518    0.6055 H   0  0  0  0  0  0  0  0  0  0  0  0
    2.2340    1.2609   -0.7152 H   0  0  0  0  0  0  0  0  0  0  0  0
  1  2  2  0
  2  3  1  0
  3  4  1  0
  4  5  2  0
  5  6  1  0
  6  7  1  0
  7  8  1  0
  8  9  1  0
  6  2  1  0
  9  7  1  0
  7  3  1  0
  3 10  1  0
  4 11  1  0
  5 12  1  0
  6 13  1  0
  8 14  1  0
  8 15  1  0
M  END
