
     RDKit          3D

 17 18  0  0  0  0  0  0  0  0999 V2000
   -2.8037   -0.3349    1.4436 O   0  0  0  0  0  0  0  0  0  0  0  0
   -1.8914   -0.2058    0.6681 C   0  0  0  0  0  0  0  0  0  0  0  0
   -1.0880   -1.2930    0.0719 C   0  0  0  0  0  0  0  0  0  0  0  0
    0.2533   -0.6291   -0.0733 C   0  0  0  0  0  0  0  0  0  0  0  0
    0.0983    0.6987   -0.0500 C   0  0  0  0  0  0  0  0  0  0  0  0
    1.4603    1.2712   -0.1979 C   0  0  0  0  0  0  0  0  0  0  0  0
    2.2739    0.2440   -0.5940 O   0  0  0  0  0  0  0  0  0  0  0  0
    1.6954   -0.9529   -0.2342 C   0  0  0  0  0  0  0  0  0  0  0  0
   -1.3341    1.0451    0.1099 C   0  0  0  0  0  0  0  0  0  0  0  0
   -1.4453   -1.4672   -0.9694 H   0  0  0  0  0  0  0  0  0  0  0  0
   -1.0415   -2.1982    0.6803 H   0  0  0  0  0  0  0  0  0  0  0  0
    1.8030    1.8028    0.7071 H   0  0  0  0  0  0  0  0  0  0  0  0
    1.3942    1.9915   -1.0645 H   0  0  0  0  0  0  0  0  0  0  0  0
    2.0943   -1.3855    0.7038 H   0  0  0  0  0  0  0  0  0  0  0  0
    1.7822   -1.6910   -1.0406 H   0  0  0  0  0  0  0  0  0  0  0  0
   -1.7495    1.1790   -0.9185 H   0  0  0  0  0  0  0  0  0  0  0  0
   -1.5015    1.9254    0.7576 H   0  0  0  0  0  0  0  0  0  0  0  0
  1  2  2  0
  2  3  1  0
  3  4  1  0
  4  5  2  0
  5  6  1  0
  6  7  1  0
  7  8  1  0
  5  9  1  0
  9  2  1  0
  8  4  1  0
  3 10  1  0
  3 11  1  0
  6 12  1  0
  6 13  1  0
  8 14  1  0
  8 15  1  0
  9 16  1  0
  9 17  1  0
M  END
