
     RDKit          3D

 12 12  0  0  0  0  0  0  0  0999 V2000
   -2.1635   -1.7894    0.1436 O   0  0  0  0  0  0  0  0  0  0  0  0
   -1.2455   -0.9209    0.0418 C   0  0  0  0  0  0  0  0  0  0  0  0
   -1.5331    0.4258   -0.0716 C   0  0  0  0  0  0  0  0  0  0  0  0
   -0.4822    1.2816   -0.1757 C   0  0  0  0  0  0  0  0  0  0  0  0
    0.7913    0.7602   -0.1620 C   0  0  0  0  0  0  0  0  0  0  0  0
    1.0272   -0.5925   -0.0468 C   0  0  0  0  0  0  0  0  0  0  0  0
    2.3308   -1.1112   -0.0341 O   0  0  0  0  0  0  0  0  0  0  0  0
   -0.0192   -1.3740    0.0506 O   0  0  0  0  0  0  0  0  0  0  0  0
   -2.5762    0.7028   -0.0693 H   0  0  0  0  0  0  0  0  0  0  0  0
   -0.6729    2.3441   -0.2661 H   0  0  0  0  0  0  0  0  0  0  0  0
    1.6569    1.4081   -0.2427 H   0  0  0  0  0  0  0  0  0  0  0  0
    2.8864   -1.1347    0.8324 H   0  0  0  0  0  0  0  0  0  0  0  0
  1  2  2  0
  2  3  1  0
  3  4  2  0
  4  5  1  0
  5  6  2  0
  6  7  1  0
  6  8  1  0
  8  2  1  0
  3  9  1  0
  4 10  1  0
  5 11  1  0
  7 12  1  0
M  END
