
     RDKit          3D

 17 18  0  0  0  0  0  0  0  0999 V2000
   -0.1301    1.8543    1.5726 O   0  0  0  0  0  0  0  0  0  0  0  0
   -0.9052    1.1289    0.9238 C   0  0  0  0  0  0  0  0  0  0  0  0
   -2.1781    0.6573    1.1600 O   0  0  0  0  0  0  0  0  0  0  0  0
   -2.0981   -0.3397    0.1543 C   0  0  0  0  0  0  0  0  0  0  0  0
   -0.8856    0.4307   -0.3555 C   0  0  0  0  0  0  0  0  0  0  0  0
    0.2757   -0.4724   -0.6236 C   0  0  0  0  0  0  0  0  0  0  0  0
    1.6245    0.2570   -0.6004 C   0  0  0  0  0  0  0  0  0  0  0  0
    1.2891   -0.8110    0.3725 C   0  0  0  0  0  0  0  0  0  0  0  0
    1.0911   -0.4765    1.7116 O   0  0  0  0  0  0  0  0  0  0  0  0
   -2.9461   -0.2320   -0.5404 H   0  0  0  0  0  0  0  0  0  0  0  0
   -1.8747   -1.3518    0.5161 H   0  0  0  0  0  0  0  0  0  0  0  0
   -1.1105    1.0391   -1.2577 H   0  0  0  0  0  0  0  0  0  0  0  0
    0.1337   -1.1306   -1.5178 H   0  0  0  0  0  0  0  0  0  0  0  0
    2.3034    0.0835   -1.4572 H   0  0  0  0  0  0  0  0  0  0  0  0
    1.6624    1.2766   -0.2032 H   0  0  0  0  0  0  0  0  0  0  0  0
    1.8024   -1.8083    0.2688 H   0  0  0  0  0  0  0  0  0  0  0  0
    1.9461   -0.1051    2.0555 H   0  0  0  0  0  0  0  0  0  0  0  0
  1  2  2  0
  2  3  1  0
  3  4  1  0
  4  5  1  0
  5  6  1  0
  6  7  1  0
  7  8  1  0
  8  9  1  0
  5  2  1  0
  8  6  1  0
  4 10  1  0
  4 11  1  0
  5 12  1  0
  6 13  1  0
  7 14  1  0
  7 15  1  0
  8 16  1  0
  9 17  1  0
M  END
