
     RDKit          3D

 15 17  0  0  0  0  0  0  0  0999 V2000
    2.7349    1.2237   -0.0980 O   0  0  0  0  0  0  0  0  0  0  0  0
    1.7438    0.4624    0.0535 C   0  0  0  0  0  0  0  0  0  0  0  0
    1.5897   -0.6436    0.8702 O   0  0  0  0  0  0  0  0  0  0  0  0
    0.4932   -1.4446    0.4446 C   0  0  0  0  0  0  0  0  0  0  0  0
   -0.8092   -0.6973    0.3892 C   0  0  0  0  0  0  0  0  0  0  0  0
   -0.6725    0.8034    0.3282 C   0  0  0  0  0  0  0  0  0  0  0  0
   -1.7682    1.4907   -0.1618 O   0  0  0  0  0  0  0  0  0  0  0  0
    0.4450    0.6100   -0.6677 C   0  0  0  0  0  0  0  0  0  0  0  0
    0.0254   -0.8245   -0.7931 C   0  0  0  0  0  0  0  0  0  0  0  0
    0.5158   -2.5275    0.6036 H   0  0  0  0  0  0  0  0  0  0  0  0
   -1.7653   -1.1817    0.5396 H   0  0  0  0  0  0  0  0  0  0  0  0
   -0.3065    1.2647    1.2636 H   0  0  0  0  0  0  0  0  0  0  0  0
   -2.4658    1.5397    0.5037 H   0  0  0  0  0  0  0  0  0  0  0  0
    0.4434    1.2288   -1.5553 H   0  0  0  0  0  0  0  0  0  0  0  0
   -0.2039   -1.3043   -1.7201 H   0  0  0  0  0  0  0  0  0  0  0  0
  1  2  2  0
  2  3  1  0
  3  4  1  0
  4  5  1  0
  5  6  1  0
  6  7  1  0
  6  8  1  0
  8  9  1  0
  8  2  1  0
  9  4  1  0
  9  5  1  0
  4 10  1  0
  5 11  1  0
  6 12  1  0
  7 13  1  0
  8 14  1  0
  9 15  1  0
M  END
