
     RDKit          3D

 17 17  0  0  0  0  0  0  0  0999 V2000
    2.7170   -0.1471    1.1280 O   0  0  0  0  0  0  0  0  0  0  0  0
    1.6175   -0.0537    0.4794 C   0  0  0  0  0  0  0  0  0  0  0  0
    1.1094    1.2843    0.2442 C   0  0  0  0  0  0  0  0  0  0  0  0
   -0.1479    1.6539    0.1167 C   0  0  0  0  0  0  0  0  0  0  0  0
   -1.3554    0.8401    0.1748 C   0  0  0  0  0  0  0  0  0  0  0  0
   -1.3013   -0.3954   -0.6896 C   0  0  0  0  0  0  0  0  0  0  0  0
   -0.3492   -1.4016   -0.2224 C   0  0  0  0  0  0  0  0  0  0  0  0
   -0.8211   -2.5124   -0.0599 O   0  0  0  0  0  0  0  0  0  0  0  0
    1.0909   -1.3595    0.1012 C   0  0  0  0  0  0  0  0  0  0  0  0
    1.8879    2.0554    0.1689 H   0  0  0  0  0  0  0  0  0  0  0  0
   -0.3052    2.7315   -0.0584 H   0  0  0  0  0  0  0  0  0  0  0  0
   -1.5848    0.5565    1.2272 H   0  0  0  0  0  0  0  0  0  0  0  0
   -2.2235    1.4355   -0.1748 H   0  0  0  0  0  0  0  0  0  0  0  0
   -1.0104   -0.0935   -1.7170 H   0  0  0  0  0  0  0  0  0  0  0  0
   -2.3336   -0.7994   -0.7321 H   0  0  0  0  0  0  0  0  0  0  0  0
    1.3846   -2.1197    0.8540 H   0  0  0  0  0  0  0  0  0  0  0  0
    1.6250   -1.6748   -0.8401 H   0  0  0  0  0  0  0  0  0  0  0  0
  1  2  2  0
  2  3  1  0
  3  4  2  0
  4  5  1  0
  5  6  1  0
  6  7  1  0
  7  8  2  0
  7  9  1  0
  9  2  1  0
  3 10  1  0
  4 11  1  0
  5 12  1  0
  5 13  1  0
  6 14  1  0
  6 15  1  0
  9 16  1  0
  9 17  1  0
M  END
