
     RDKit          3D

 17 18  0  0  0  0  0  0  0  0999 V2000
    2.5729    1.6813   -0.0366 O   0  0  0  0  0  0  0  0  0  0  0  0
    1.7115    0.7778    0.0712 C   0  0  0  0  0  0  0  0  0  0  0  0
    1.9713   -0.5619   -0.0272 O   0  0  0  0  0  0  0  0  0  0  0  0
    0.7527   -1.3064   -0.1215 C   0  0  0  0  0  0  0  0  0  0  0  0
   -0.2500   -0.4247    0.5533 C   0  0  0  0  0  0  0  0  0  0  0  0
   -0.4948   -0.6958    1.8911 O   0  0  0  0  0  0  0  0  0  0  0  0
   -1.4516   -0.0313   -0.2595 C   0  0  0  0  0  0  0  0  0  0  0  0
   -0.5575    0.9921   -0.9627 C   0  0  0  0  0  0  0  0  0  0  0  0
    0.2889    0.9764    0.3185 C   0  0  0  0  0  0  0  0  0  0  0  0
    0.5113   -1.4090   -1.2109 H   0  0  0  0  0  0  0  0  0  0  0  0
    0.8832   -2.2913    0.3728 H   0  0  0  0  0  0  0  0  0  0  0  0
   -0.8174   -1.6331    1.9437 H   0  0  0  0  0  0  0  0  0  0  0  0
   -1.8408   -0.8011   -0.9439 H   0  0  0  0  0  0  0  0  0  0  0  0
   -2.1901    0.4845    0.3679 H   0  0  0  0  0  0  0  0  0  0  0  0
   -1.0644    1.9490   -1.1487 H   0  0  0  0  0  0  0  0  0  0  0  0
   -0.0075    0.5560   -1.8371 H   0  0  0  0  0  0  0  0  0  0  0  0
   -0.0175    1.7374    1.0298 H   0  0  0  0  0  0  0  0  0  0  0  0
  1  2  2  0
  2  3  1  0
  3  4  1  0
  4  5  1  0
  5  6  1  0
  5  7  1  0
  7  8  1  0
  8  9  1  0
  9  2  1  0
  9  5  1  0
  4 10  1  0
  4 11  1  0
  6 12  1  0
  7 13  1  0
  7 14  1  0
  8 15  1  0
  8 16  1  0
  9 17  1  0
M  END
