
     RDKit          3D

 17 18  0  0  0  0  0  0  0  0999 V2000
    0.7585    2.4111    0.0891 O   0  0  0  0  0  0  0  0  0  0  0  0
    1.1932    1.2342    0.0293 C   0  0  0  0  0  0  0  0  0  0  0  0
    2.3536    0.7243   -0.5342 O   0  0  0  0  0  0  0  0  0  0  0  0
    2.2537   -0.7037   -0.4149 C   0  0  0  0  0  0  0  0  0  0  0  0
    0.8789   -0.9391   -0.3228 O   0  0  0  0  0  0  0  0  0  0  0  0
    0.4995    0.0503    0.5946 C   0  0  0  0  0  0  0  0  0  0  0  0
   -0.9972    0.2489    0.6229 C   0  0  0  0  0  0  0  0  0  0  0  0
   -1.7283    0.4873   -0.6388 C   0  0  0  0  0  0  0  0  0  0  0  0
   -1.9242   -0.7924    0.1914 C   0  0  0  0  0  0  0  0  0  0  0  0
    2.7076   -1.1752   -1.3086 H   0  0  0  0  0  0  0  0  0  0  0  0
    2.7182   -1.0497    0.5315 H   0  0  0  0  0  0  0  0  0  0  0  0
    0.9016   -0.2665    1.5720 H   0  0  0  0  0  0  0  0  0  0  0  0
   -1.3196    0.8737    1.4940 H   0  0  0  0  0  0  0  0  0  0  0  0
   -2.5722    1.2144   -0.6545 H   0  0  0  0  0  0  0  0  0  0  0  0
   -1.2462    0.3502   -1.6341 H   0  0  0  0  0  0  0  0  0  0  0  0
   -2.9166   -0.9211    0.6640 H   0  0  0  0  0  0  0  0  0  0  0  0
   -1.5605   -1.7467   -0.2807 H   0  0  0  0  0  0  0  0  0  0  0  0
  1  2  2  0
  2  3  1  0
  3  4  1  0
  4  5  1  0
  5  6  1  0
  6  7  1  0
  7  8  1  0
  8  9  1  0
  6  2  1  0
  9  7  1  0
  4 10  1  0
  4 11  1  0
  6 12  1  0
  7 13  1  0
  8 14  1  0
  8 15  1  0
  9 16  1  0
  9 17  1  0
M  END
