
     RDKit          3D

 14 15  0  0  0  0  0  0  0  0999 V2000
    1.0915   -2.1154   -0.2795 O   0  0  0  0  0  0  0  0  0  0  0  0
    0.4122   -1.1150   -0.1710 C   0  0  0  0  0  0  0  0  0  0  0  0
    0.8654    0.2431   -0.5581 C   0  0  0  0  0  0  0  0  0  0  0  0
    2.1179    0.4423    0.0106 O   0  0  0  0  0  0  0  0  0  0  0  0
   -0.1821    1.1740   -0.0012 C   0  0  0  0  0  0  0  0  0  0  0  0
   -1.3905    0.3590    0.3339 C   0  0  0  0  0  0  0  0  0  0  0  0
   -1.9017   -0.5622   -0.5478 O   0  0  0  0  0  0  0  0  0  0  0  0
   -0.9540   -1.0519    0.3500 C   0  0  0  0  0  0  0  0  0  0  0  0
    0.8820    0.3646   -1.6625 H   0  0  0  0  0  0  0  0  0  0  0  0
    2.6001   -0.4253    0.0417 H   0  0  0  0  0  0  0  0  0  0  0  0
   -0.3615    1.9901   -0.7138 H   0  0  0  0  0  0  0  0  0  0  0  0
    0.2077    1.6093    0.9507 H   0  0  0  0  0  0  0  0  0  0  0  0
   -2.1041    0.7709    1.0509 H   0  0  0  0  0  0  0  0  0  0  0  0
   -1.2829   -1.6837    1.1963 H   0  0  0  0  0  0  0  0  0  0  0  0
  1  2  2  0
  2  3  1  0
  3  4  1  0
  3  5  1  0
  5  6  1  0
  6  7  1  0
  7  8  1  0
  8  2  1  0
  8  6  1  0
  3  9  1  0
  4 10  1  0
  5 11  1  0
  5 12  1  0
  6 13  1  0
  8 14  1  0
M  END
