
     RDKit          3D

 17 19  0  0  0  0  0  0  0  0999 V2000
    2.3924   -1.0355   -1.0769 O   0  0  0  0  0  0  0  0  0  0  0  0
    1.4018   -0.5569   -0.5803 C   0  0  0  0  0  0  0  0  0  0  0  0
    1.3147    0.8277   -0.0535 C   0  0  0  0  0  0  0  0  0  0  0  0
   -0.1099    0.9609    0.4864 C   0  0  0  0  0  0  0  0  0  0  0  0
   -1.0747    0.9765   -0.6861 C   0  0  0  0  0  0  0  0  0  0  0  0
   -1.1728   -0.5249   -0.5434 C   0  0  0  0  0  0  0  0  0  0  0  0
    0.1150   -1.2312   -0.4016 C   0  0  0  0  0  0  0  0  0  0  0  0
   -0.4898   -0.4572    0.7224 C   0  0  0  0  0  0  0  0  0  0  0  0
   -0.8231   -0.9896    1.9051 O   0  0  0  0  0  0  0  0  0  0  0  0
    1.4719    1.5862   -0.8533 H   0  0  0  0  0  0  0  0  0  0  0  0
    2.0013    1.0328    0.7682 H   0  0  0  0  0  0  0  0  0  0  0  0
   -0.2637    1.6946    1.2637 H   0  0  0  0  0  0  0  0  0  0  0  0
   -0.6094    1.2173   -1.6641 H   0  0  0  0  0  0  0  0  0  0  0  0
   -2.0122    1.5364   -0.5082 H   0  0  0  0  0  0  0  0  0  0  0  0
   -2.0902   -1.0684   -0.6922 H   0  0  0  0  0  0  0  0  0  0  0  0
    0.0584   -2.3335   -0.2744 H   0  0  0  0  0  0  0  0  0  0  0  0
   -0.1097   -1.6350    2.1880 H   0  0  0  0  0  0  0  0  0  0  0  0
  1  2  2  0
  2  3  1  0
  3  4  1  0
  4  5  1  0
  5  6  1  0
  6  7  1  0
  7  8  1  0
  8  9  1  0
  7  2  1  0
  8  4  1  0
  8  6  1  0
  3 10  1  0
  3 11  1  0
  4 12  1  0
  5 13  1  0
  5 14  1  0
  6 15  1  0
  7 16  1  0
  9 17  1  0
M  END
