
     RDKit          3D

 19 20  0  0  0  0  0  0  0  0999 V2000
   -2.4894   -0.0767   -1.1579 O   0  0  0  0  0  0  0  0  0  0  0  0
   -1.5083    0.0843   -0.4511 C   0  0  0  0  0  0  0  0  0  0  0  0
   -1.2604   -0.8924    0.6316 C   0  0  0  0  0  0  0  0  0  0  0  0
    0.2607   -1.0255    0.7574 C   0  0  0  0  0  0  0  0  0  0  0  0
    0.8494   -1.1951   -0.6121 C   0  0  0  0  0  0  0  0  0  0  0  0
    1.3871   -0.0513   -1.0247 C   0  0  0  0  0  0  0  0  0  0  0  0
    0.7719    1.0369   -0.2027 C   0  0  0  0  0  0  0  0  0  0  0  0
   -0.6360    1.2343   -0.7173 C   0  0  0  0  0  0  0  0  0  0  0  0
    0.7579    0.3541    1.1711 C   0  0  0  0  0  0  0  0  0  0  0  0
   -1.5849   -0.4595    1.6227 H   0  0  0  0  0  0  0  0  0  0  0  0
   -1.7228   -1.8761    0.4563 H   0  0  0  0  0  0  0  0  0  0  0  0
    0.5565   -1.8121    1.4480 H   0  0  0  0  0  0  0  0  0  0  0  0
    0.8564   -2.1020   -1.2124 H   0  0  0  0  0  0  0  0  0  0  0  0
    2.1310    0.0707   -1.8087 H   0  0  0  0  0  0  0  0  0  0  0  0
    1.3352    1.9624   -0.2077 H   0  0  0  0  0  0  0  0  0  0  0  0
   -0.5416    1.4631   -1.8141 H   0  0  0  0  0  0  0  0  0  0  0  0
   -1.0521    2.1246   -0.2459 H   0  0  0  0  0  0  0  0  0  0  0  0
    0.0838    0.8487    1.8731 H   0  0  0  0  0  0  0  0  0  0  0  0
    1.8057    0.3114    1.4942 H   0  0  0  0  0  0  0  0  0  0  0  0
  1  2  2  0
  2  3  1  0
  3  4  1  0
  4  5  1  0
  5  6  2  0
  6  7  1  0
  7  8  1  0
  7  9  1  0
  8  2  1  0
  9  4  1  0
  3 10  1  0
  3 11  1  0
  4 12  1  0
  5 13  1  0
  6 14  1  0
  7 15  1  0
  8 16  1  0
  8 17  1  0
  9 18  1  0
  9 19  1  0
M  END
