
     RDKit          3D

 15 16  0  0  0  0  0  0  0  0999 V2000
    0.0005   -2.7731   -0.6087 O   0  0  0  0  0  0  0  0  0  0  0  0
   -0.2756   -1.6232   -0.2070 C   0  0  0  0  0  0  0  0  0  0  0  0
   -1.5863   -1.1575   -0.3025 O   0  0  0  0  0  0  0  0  0  0  0  0
   -1.9218    0.1838    0.0102 C   0  0  0  0  0  0  0  0  0  0  0  0
   -0.7724    1.0994   -0.2348 C   0  0  0  0  0  0  0  0  0  0  0  0
    0.4561    0.6911   -0.0766 C   0  0  0  0  0  0  0  0  0  0  0  0
    1.9227    0.7147   -0.0431 C   0  0  0  0  0  0  0  0  0  0  0  0
    1.8965   -0.6691   -0.3825 O   0  0  0  0  0  0  0  0  0  0  0  0
    0.7293   -0.7200    0.3718 C   0  0  0  0  0  0  0  0  0  0  0  0
   -2.7617    0.4558   -0.6668 H   0  0  0  0  0  0  0  0  0  0  0  0
   -2.2963    0.2895    1.0408 H   0  0  0  0  0  0  0  0  0  0  0  0
   -0.9871    2.1055   -0.5454 H   0  0  0  0  0  0  0  0  0  0  0  0
    2.4170    1.3441   -0.8022 H   0  0  0  0  0  0  0  0  0  0  0  0
    2.3274    0.7942    0.9853 H   0  0  0  0  0  0  0  0  0  0  0  0
    0.8516   -0.7352    1.4616 H   0  0  0  0  0  0  0  0  0  0  0  0
  1  2  2  0
  2  3  1  0
  3  4  1  0
  4  5  1  0
  5  6  2  0
  6  7  1  0
  7  8  1  0
  8  9  1  0
  9  2  1  0
  9  6  1  0
  4 10  1  0
  4 11  1  0
  5 12  1  0
  7 13  1  0
  7 14  1  0
  9 15  1  0
M  END
