
     RDKit          3D

 17 18  0  0  0  0  0  0  0  0999 V2000
    1.9357   -0.8938    2.0922 O   0  0  0  0  0  0  0  0  0  0  0  0
    1.6168   -0.3982    1.0150 C   0  0  0  0  0  0  0  0  0  0  0  0
    2.3893   -0.3340   -0.2001 C   0  0  0  0  0  0  0  0  0  0  0  0
    1.6713    0.2142   -1.1836 C   0  0  0  0  0  0  0  0  0  0  0  0
    0.3250    0.5817   -0.7328 C   0  0  0  0  0  0  0  0  0  0  0  0
   -0.5669   -0.5066   -0.2170 C   0  0  0  0  0  0  0  0  0  0  0  0
   -2.0283   -0.2156   -0.0456 C   0  0  0  0  0  0  0  0  0  0  0  0
   -2.2652    0.8328    0.8522 O   0  0  0  0  0  0  0  0  0  0  0  0
    0.3340    0.2602    0.7189 C   0  0  0  0  0  0  0  0  0  0  0  0
    3.4103   -0.6826   -0.2994 H   0  0  0  0  0  0  0  0  0  0  0  0
    2.0500    0.3665   -2.1989 H   0  0  0  0  0  0  0  0  0  0  0  0
   -0.1142    1.5655   -0.9920 H   0  0  0  0  0  0  0  0  0  0  0  0
   -0.3350   -1.5602   -0.4641 H   0  0  0  0  0  0  0  0  0  0  0  0
   -2.5636   -0.0762   -1.0058 H   0  0  0  0  0  0  0  0  0  0  0  0
   -2.4950   -1.1300    0.4177 H   0  0  0  0  0  0  0  0  0  0  0  0
   -3.2428    1.0312    0.7814 H   0  0  0  0  0  0  0  0  0  0  0  0
   -0.1213    0.9451    1.4618 H   0  0  0  0  0  0  0  0  0  0  0  0
  1  2  2  0
  2  3  1  0
  3  4  2  0
  4  5  1  0
  5  6  1  0
  6  7  1  0
  7  8  1  0
  6  9  1  0
  9  2  1  0
  9  5  1  0
  3 10  1  0
  4 11  1  0
  5 12  1  0
  6 13  1  0
  7 14  1  0
  7 15  1  0
  8 16  1  0
  9 17  1  0
M  END
