
     RDKit          3D

 16 17  0  0  0  0  0  0  0  0999 V2000
    0.3138   -1.4112   -2.0071 O   0  0  0  0  0  0  0  0  0  0  0  0
    0.5390   -0.5958   -1.0807 C   0  0  0  0  0  0  0  0  0  0  0  0
    1.7799    0.1278   -0.8554 C   0  0  0  0  0  0  0  0  0  0  0  0
    1.8074    0.6370    0.3617 C   0  0  0  0  0  0  0  0  0  0  0  0
    0.5639    0.3000    1.0907 C   0  0  0  0  0  0  0  0  0  0  0  0
   -0.3587   -0.1410    0.0226 C   0  0  0  0  0  0  0  0  0  0  0  0
   -1.6441   -0.8167    0.2840 C   0  0  0  0  0  0  0  0  0  0  0  0
   -1.6247    0.5498   -0.2958 C   0  0  0  0  0  0  0  0  0  0  0  0
    2.5803    0.2318   -1.6014 H   0  0  0  0  0  0  0  0  0  0  0  0
    2.6665    1.2230    0.7261 H   0  0  0  0  0  0  0  0  0  0  0  0
    0.1958    1.1282    1.7232 H   0  0  0  0  0  0  0  0  0  0  0  0
    0.8158   -0.6005    1.7238 H   0  0  0  0  0  0  0  0  0  0  0  0
   -1.8442   -1.6849   -0.4076 H   0  0  0  0  0  0  0  0  0  0  0  0
   -1.9071   -1.0034    1.3260 H   0  0  0  0  0  0  0  0  0  0  0  0
   -1.9113    0.6742   -1.3640 H   0  0  0  0  0  0  0  0  0  0  0  0
   -1.9722    1.3816    0.3540 H   0  0  0  0  0  0  0  0  0  0  0  0
  1  2  2  0
  2  3  1  0
  3  4  2  0
  4  5  1  0
  5  6  1  0
  6  7  1  0
  7  8  1  0
  6  2  1  0
  8  6  1  0
  3  9  1  0
  4 10  1  0
  5 11  1  0
  5 12  1  0
  7 13  1  0
  7 14  1  0
  8 15  1  0
  8 16  1  0
M  END
