
     RDKit          3D

 15 16  0  0  0  0  0  0  0  0999 V2000
   -2.5790    1.3700    0.5856 O   0  0  0  0  0  0  0  0  0  0  0  0
   -1.5097    0.9473    0.0752 C   0  0  0  0  0  0  0  0  0  0  0  0
   -0.3509    1.7002    0.2064 O   0  0  0  0  0  0  0  0  0  0  0  0
    0.8859    1.0475   -0.0490 C   0  0  0  0  0  0  0  0  0  0  0  0
    0.7429   -0.3652    0.4940 C   0  0  0  0  0  0  0  0  0  0  0  0
    1.9877   -0.9721    0.3548 O   0  0  0  0  0  0  0  0  0  0  0  0
   -0.2371   -1.1388   -0.3485 C   0  0  0  0  0  0  0  0  0  0  0  0
   -1.4869   -1.4622    0.1630 O   0  0  0  0  0  0  0  0  0  0  0  0
   -1.4357   -0.3332   -0.6673 C   0  0  0  0  0  0  0  0  0  0  0  0
    0.9691    0.9800   -1.1595 H   0  0  0  0  0  0  0  0  0  0  0  0
    1.7376    1.5310    0.4282 H   0  0  0  0  0  0  0  0  0  0  0  0
    0.4267   -0.3725    1.5484 H   0  0  0  0  0  0  0  0  0  0  0  0
    2.5133   -0.7134    1.1546 H   0  0  0  0  0  0  0  0  0  0  0  0
    0.1392   -1.8343   -1.0954 H   0  0  0  0  0  0  0  0  0  0  0  0
   -1.8031   -0.3846   -1.6903 H   0  0  0  0  0  0  0  0  0  0  0  0
  1  2  2  0
  2  3  1  0
  3  4  1  0
  4  5  1  0
  5  6  1  0
  5  7  1  0
  7  8  1  0
  8  9  1  0
  9  2  1  0
  9  7  1  0
  4 10  1  0
  4 11  1  0
  5 12  1  0
  6 13  1  0
  7 14  1  0
  9 15  1  0
M  END
