
     RDKit          3D

 17 18  0  0  0  0  0  0  0  0999 V2000
    2.8673    0.0568    0.3949 O   0  0  0  0  0  0  0  0  0  0  0  0
    1.6799    0.1020   -0.0050 C   0  0  0  0  0  0  0  0  0  0  0  0
    1.0838    1.3669   -0.4497 C   0  0  0  0  0  0  0  0  0  0  0  0
   -0.2512    1.4872   -0.2774 C   0  0  0  0  0  0  0  0  0  0  0  0
   -0.8592    0.3261    0.3258 C   0  0  0  0  0  0  0  0  0  0  0  0
   -0.4578    0.2216    1.6835 O   0  0  0  0  0  0  0  0  0  0  0  0
   -1.7092   -0.6902   -0.1428 C   0  0  0  0  0  0  0  0  0  0  0  0
   -0.3914   -0.8294   -0.6294 C   0  0  0  0  0  0  0  0  0  0  0  0
    0.9018   -1.1949   -0.0069 C   0  0  0  0  0  0  0  0  0  0  0  0
    1.6869    2.1511   -0.8860 H   0  0  0  0  0  0  0  0  0  0  0  0
   -0.7134    2.3892   -0.5889 H   0  0  0  0  0  0  0  0  0  0  0  0
   -1.2286    0.5677    2.2081 H   0  0  0  0  0  0  0  0  0  0  0  0
   -2.0966   -1.4602    0.5819 H   0  0  0  0  0  0  0  0  0  0  0  0
   -2.5242   -0.4399   -0.8618 H   0  0  0  0  0  0  0  0  0  0  0  0
   -0.2193   -0.5423   -1.7114 H   0  0  0  0  0  0  0  0  0  0  0  0
    1.4263   -1.9227   -0.6578 H   0  0  0  0  0  0  0  0  0  0  0  0
    0.8048   -1.5891    1.0228 H   0  0  0  0  0  0  0  0  0  0  0  0
  1  2  2  0
  2  3  1  0
  3  4  2  0
  4  5  1  0
  5  6  1  0
  5  7  1  0
  7  8  1  0
  8  9  1  0
  9  2  1  0
  8  5  1  0
  3 10  1  0
  4 11  1  0
  6 12  1  0
  7 13  1  0
  7 14  1  0
  8 15  1  0
  9 16  1  0
  9 17  1  0
M  END
