
     RDKit          3D

 17 18  0  0  0  0  0  0  0  0999 V2000
   -2.9894   -1.8090   -0.4450 O   0  0  0  0  0  0  0  0  0  0  0  0
   -1.9752   -1.0518   -0.5553 C   0  0  0  0  0  0  0  0  0  0  0  0
   -1.9489    0.4281   -0.5483 C   0  0  0  0  0  0  0  0  0  0  0  0
   -0.5090    0.7831   -0.2681 C   0  0  0  0  0  0  0  0  0  0  0  0
    0.1109   -0.5517    0.0873 C   0  0  0  0  0  0  0  0  0  0  0  0
    1.5713   -0.6485   -0.1698 C   0  0  0  0  0  0  0  0  0  0  0  0
    2.3404    0.5704   -0.3222 C   0  0  0  0  0  0  0  0  0  0  0  0
    2.1036   -0.4062   -1.4185 O   0  0  0  0  0  0  0  0  0  0  0  0
   -0.6657   -1.4645   -0.7073 O   0  0  0  0  0  0  0  0  0  0  0  0
   -2.2110    0.7478   -1.5928 H   0  0  0  0  0  0  0  0  0  0  0  0
   -2.6524    0.8704    0.1818 H   0  0  0  0  0  0  0  0  0  0  0  0
   -0.4612    1.4324    0.6286 H   0  0  0  0  0  0  0  0  0  0  0  0
   -0.0189    1.2213   -1.1631 H   0  0  0  0  0  0  0  0  0  0  0  0
   -0.0897   -0.8031    1.1488 H   0  0  0  0  0  0  0  0  0  0  0  0
    2.0652   -1.4793    0.3751 H   0  0  0  0  0  0  0  0  0  0  0  0
    1.9155    1.5367   -0.6624 H   0  0  0  0  0  0  0  0  0  0  0  0
    3.4144    0.6240   -0.0449 H   0  0  0  0  0  0  0  0  0  0  0  0
  1  2  2  0
  2  3  1  0
  3  4  1  0
  4  5  1  0
  5  6  1  0
  6  7  1  0
  7  8  1  0
  5  9  1  0
  9  2  1  0
  8  6  1  0
  3 10  1  0
  3 11  1  0
  4 12  1  0
  4 13  1  0
  5 14  1  0
  6 15  1  0
  7 16  1  0
  7 17  1  0
M  END
