
     RDKit          3D

 13 14  0  0  0  0  0  0  0  0999 V2000
    3.6489   -0.1618   -0.7319 O   0  0  0  0  0  0  0  0  0  0  0  0
    2.4021   -0.1003   -0.4809 C   0  0  0  0  0  0  0  0  0  0  0  0
    1.7401    0.9929   -0.1932 O   0  0  0  0  0  0  0  0  0  0  0  0
    0.4719    0.7389    0.0159 C   0  0  0  0  0  0  0  0  0  0  0  0
    0.3344   -0.6148   -0.1545 C   0  0  0  0  0  0  0  0  0  0  0  0
    1.5250   -1.0718   -0.4522 O   0  0  0  0  0  0  0  0  0  0  0  0
   -1.1086   -0.9906    0.0708 C   0  0  0  0  0  0  0  0  0  0  0  0
   -1.7210    0.3167    0.3801 C   0  0  0  0  0  0  0  0  0  0  0  0
   -0.8397    1.2942    0.3514 C   0  0  0  0  0  0  0  0  0  0  0  0
   -1.1858   -1.7114    0.9228 H   0  0  0  0  0  0  0  0  0  0  0  0
   -1.4611   -1.4284   -0.8653 H   0  0  0  0  0  0  0  0  0  0  0  0
   -2.7976    0.3990    0.6010 H   0  0  0  0  0  0  0  0  0  0  0  0
   -1.0087    2.3374    0.5361 H   0  0  0  0  0  0  0  0  0  0  0  0
  1  2  2  0
  2  3  1  0
  3  4  1  0
  4  5  2  0
  5  6  1  0
  5  7  1  0
  7  8  1  0
  8  9  2  0
  6  2  1  0
  9  4  1  0
  7 10  1  0
  7 11  1  0
  8 12  1  0
  9 13  1  0
M  END
