
     RDKit          3D

 15 16  0  0  0  0  0  0  0  0999 V2000
   -3.1244    0.3753    0.9148 O   0  0  0  0  0  0  0  0  0  0  0  0
   -2.0166    0.0594    0.4419 C   0  0  0  0  0  0  0  0  0  0  0  0
   -1.7656   -0.2664   -0.8855 O   0  0  0  0  0  0  0  0  0  0  0  0
   -0.4751   -0.8709   -1.0023 C   0  0  0  0  0  0  0  0  0  0  0  0
    0.2722   -0.2019    0.0898 C   0  0  0  0  0  0  0  0  0  0  0  0
    0.9857    1.0789   -0.3229 C   0  0  0  0  0  0  0  0  0  0  0  0
    1.6904   -0.0919    0.2362 C   0  0  0  0  0  0  0  0  0  0  0  0
   -0.7244   -0.0456    1.1552 C   0  0  0  0  0  0  0  0  0  0  0  0
   -0.5587   -0.0060    2.3860 O   0  0  0  0  0  0  0  0  0  0  0  0
   -0.6309   -1.9597   -0.7544 H   0  0  0  0  0  0  0  0  0  0  0  0
   -0.0617   -0.7345   -2.0070 H   0  0  0  0  0  0  0  0  0  0  0  0
    0.7858    1.9941    0.3043 H   0  0  0  0  0  0  0  0  0  0  0  0
    1.1349    1.2709   -1.4087 H   0  0  0  0  0  0  0  0  0  0  0  0
    2.3812   -0.6513   -0.4139 H   0  0  0  0  0  0  0  0  0  0  0  0
    2.1070    0.0497    1.2667 H   0  0  0  0  0  0  0  0  0  0  0  0
  1  2  2  0
  2  3  1  0
  3  4  1  0
  4  5  1  0
  5  6  1  0
  6  7  1  0
  5  8  1  0
  8  9  2  0
  8  2  1  0
  7  5  1  0
  4 10  1  0
  4 11  1  0
  6 12  1  0
  6 13  1  0
  7 14  1  0
  7 15  1  0
M  END
