
     RDKit          3D

 16 16  0  0  0  0  0  0  0  0999 V2000
    2.4721    1.7005    1.1451 O   0  0  0  0  0  0  0  0  0  0  0  0
    1.5650    1.0446    0.5740 C   0  0  0  0  0  0  0  0  0  0  0  0
    0.1569    0.8825    0.9070 C   0  0  0  0  0  0  0  0  0  0  0  0
   -0.4021   -0.1331    0.3035 C   0  0  0  0  0  0  0  0  0  0  0  0
   -1.8496   -0.5754    0.4318 C   0  0  0  0  0  0  0  0  0  0  0  0
   -2.4767   -0.5355   -0.8134 O   0  0  0  0  0  0  0  0  0  0  0  0
    0.6148   -0.7964   -0.5329 C   0  0  0  0  0  0  0  0  0  0  0  0
    1.7015    0.2075   -0.6728 C   0  0  0  0  0  0  0  0  0  0  0  0
   -0.3860    1.5488    1.5991 H   0  0  0  0  0  0  0  0  0  0  0  0
   -2.3923    0.1315    1.0859 H   0  0  0  0  0  0  0  0  0  0  0  0
   -1.8793   -1.6108    0.8104 H   0  0  0  0  0  0  0  0  0  0  0  0
   -2.6670    0.4290   -1.0092 H   0  0  0  0  0  0  0  0  0  0  0  0
    0.1858   -1.1331   -1.5046 H   0  0  0  0  0  0  0  0  0  0  0  0
    1.0396   -1.7030   -0.0468 H   0  0  0  0  0  0  0  0  0  0  0  0
    1.5963    0.7997   -1.5828 H   0  0  0  0  0  0  0  0  0  0  0  0
    2.7211   -0.2567   -0.6944 H   0  0  0  0  0  0  0  0  0  0  0  0
  1  2  2  0
  2  3  1  0
  3  4  2  0
  4  5  1  0
  5  6  1  0
  4  7  1  0
  7  8  1  0
  8  2  1  0
  3  9  1  0
  5 10  1  0
  5 11  1  0
  6 12  1  0
  7 13  1  0
  7 14  1  0
  8 15  1  0
  8 16  1  0
M  END
