
     RDKit          3D

 17 18  0  0  0  0  0  0  0  0999 V2000
   -2.5954   -0.7362    0.4127 O   0  0  0  0  0  0  0  0  0  0  0  0
   -1.4415   -0.3997    0.3254 C   0  0  0  0  0  0  0  0  0  0  0  0
   -1.0427    1.0423    0.1130 C   0  0  0  0  0  0  0  0  0  0  0  0
    0.4396    0.9815    0.1466 C   0  0  0  0  0  0  0  0  0  0  0  0
    0.8784    0.2723   -1.1387 C   0  0  0  0  0  0  0  0  0  0  0  0
    0.5114   -1.1432   -0.9183 C   0  0  0  0  0  0  0  0  0  0  0  0
    0.7198   -2.0747   -1.6344 O   0  0  0  0  0  0  0  0  0  0  0  0
   -0.1783   -1.1832    0.3883 C   0  0  0  0  0  0  0  0  0  0  0  0
    0.6862   -0.1577    1.1509 C   0  0  0  0  0  0  0  0  0  0  0  0
   -1.3627    1.3673   -0.9000 H   0  0  0  0  0  0  0  0  0  0  0  0
   -1.4972    1.6522    0.9139 H   0  0  0  0  0  0  0  0  0  0  0  0
    0.9782    1.8754    0.3644 H   0  0  0  0  0  0  0  0  0  0  0  0
    1.9311    0.4392   -1.3696 H   0  0  0  0  0  0  0  0  0  0  0  0
    0.2106    0.6446   -1.9687 H   0  0  0  0  0  0  0  0  0  0  0  0
   -0.2398   -2.1329    0.8715 H   0  0  0  0  0  0  0  0  0  0  0  0
    0.2854    0.0628    2.1344 H   0  0  0  0  0  0  0  0  0  0  0  0
    1.7171   -0.5101    1.1086 H   0  0  0  0  0  0  0  0  0  0  0  0
  1  2  2  0
  2  3  1  0
  3  4  1  0
  4  5  1  0
  5  6  1  0
  6  7  2  0
  6  8  1  0
  8  9  1  0
  8  2  1  0
  9  4  1  0
  3 10  1  0
  3 11  1  0
  4 12  1  0
  5 13  1  0
  5 14  1  0
  8 15  1  0
  9 16  1  0
  9 17  1  0
M  END
