
     RDKit          3D

 14 15  0  0  0  0  0  0  0  0999 V2000
   -1.2223   -0.7449    2.2451 O   0  0  0  0  0  0  0  0  0  0  0  0
   -0.8659   -0.4121    1.1367 C   0  0  0  0  0  0  0  0  0  0  0  0
   -1.3125   -0.7747   -0.2318 C   0  0  0  0  0  0  0  0  0  0  0  0
   -0.1023   -0.1389   -0.8430 C   0  0  0  0  0  0  0  0  0  0  0  0
    1.2261   -0.1901   -0.2139 C   0  0  0  0  0  0  0  0  0  0  0  0
    2.2335    0.5176   -0.8403 O   0  0  0  0  0  0  0  0  0  0  0  0
    0.1409    0.4785    0.5171 C   0  0  0  0  0  0  0  0  0  0  0  0
   -0.0012    1.8459    0.5866 O   0  0  0  0  0  0  0  0  0  0  0  0
   -2.2319   -0.1800   -0.4802 H   0  0  0  0  0  0  0  0  0  0  0  0
   -1.3762   -1.8432   -0.4549 H   0  0  0  0  0  0  0  0  0  0  0  0
   -0.2621    0.4957   -1.7195 H   0  0  0  0  0  0  0  0  0  0  0  0
    1.6073   -1.1373    0.2710 H   0  0  0  0  0  0  0  0  0  0  0  0
    3.1105    0.0437   -0.8441 H   0  0  0  0  0  0  0  0  0  0  0  0
   -0.9439    2.0398    0.8712 H   0  0  0  0  0  0  0  0  0  0  0  0
  1  2  2  0
  2  3  1  0
  3  4  1  0
  4  5  1  0
  5  6  1  0
  5  7  1  0
  7  8  1  0
  7  2  1  0
  7  4  1  0
  3  9  1  0
  3 10  1  0
  4 11  1  0
  5 12  1  0
  6 13  1  0
  8 14  1  0
M  END
