
     RDKit          3D

 19 20  0  0  0  0  0  0  0  0999 V2000
   -2.9583    0.5768   -1.0234 O   0  0  0  0  0  0  0  0  0  0  0  0
   -1.9192    0.2155   -0.5319 C   0  0  0  0  0  0  0  0  0  0  0  0
   -1.7702   -0.7257    0.5970 C   0  0  0  0  0  0  0  0  0  0  0  0
   -0.2814   -0.9001    0.8148 C   0  0  0  0  0  0  0  0  0  0  0  0
    0.4333    0.0674   -0.0835 C   0  0  0  0  0  0  0  0  0  0  0  0
    1.7790   -0.3730   -0.5953 C   0  0  0  0  0  0  0  0  0  0  0  0
    2.5912   -0.5867    0.5424 O   0  0  0  0  0  0  0  0  0  0  0  0
    0.1488    1.5233   -0.0070 C   0  0  0  0  0  0  0  0  0  0  0  0
   -0.5800    0.6597   -0.9814 C   0  0  0  0  0  0  0  0  0  0  0  0
   -2.1776   -0.3262    1.5501 H   0  0  0  0  0  0  0  0  0  0  0  0
   -2.2438   -1.7241    0.3643 H   0  0  0  0  0  0  0  0  0  0  0  0
    0.0216   -1.9279    0.5460 H   0  0  0  0  0  0  0  0  0  0  0  0
    0.0245   -0.7109    1.8589 H   0  0  0  0  0  0  0  0  0  0  0  0
    1.6971   -1.3356   -1.1423 H   0  0  0  0  0  0  0  0  0  0  0  0
    2.2529    0.4114   -1.1985 H   0  0  0  0  0  0  0  0  0  0  0  0
    2.7724    0.3141    0.9450 H   0  0  0  0  0  0  0  0  0  0  0  0
   -0.3481    1.9230    0.8852 H   0  0  0  0  0  0  0  0  0  0  0  0
    0.9273    2.1770   -0.4747 H   0  0  0  0  0  0  0  0  0  0  0  0
   -0.3694    0.7420   -2.0656 H   0  0  0  0  0  0  0  0  0  0  0  0
  1  2  2  0
  2  3  1  0
  3  4  1  0
  4  5  1  0
  5  6  1  0
  6  7  1  0
  5  8  1  0
  8  9  1  0
  9  2  1  0
  9  5  1  0
  3 10  1  0
  3 11  1  0
  4 12  1  0
  4 13  1  0
  6 14  1  0
  6 15  1  0
  7 16  1  0
  8 17  1  0
  8 18  1  0
  9 19  1  0
M  END
