
     RDKit          3D

 23 23  0  0  0  0  0  0  0  0999 V2000
    0.1173    2.9696   -0.0688 O   0  0  0  0  0  0  0  0  0  0  0  0
    0.0669    1.7688    0.1472 C   0  0  0  0  0  0  0  0  0  0  0  0
   -1.2961    1.2862   -0.1980 C   0  0  0  0  0  0  0  0  0  0  0  0
   -1.6367   -0.0337    0.4006 C   0  0  0  0  0  0  0  0  0  0  0  0
   -1.3284   -1.2111   -0.4652 C   0  0  0  0  0  0  0  0  0  0  0  0
    0.0821   -1.5100   -0.7115 C   0  0  0  0  0  0  0  0  0  0  0  0
    1.0479   -1.1817    0.3641 C   0  0  0  0  0  0  0  0  0  0  0  0
    1.8480    0.0404   -0.0856 C   0  0  0  0  0  0  0  0  0  0  0  0
    1.3561    1.2612    0.6602 C   0  0  0  0  0  0  0  0  0  0  0  0
   -1.4672    1.3257   -1.3061 H   0  0  0  0  0  0  0  0  0  0  0  0
   -2.0020    2.0505    0.2226 H   0  0  0  0  0  0  0  0  0  0  0  0
   -2.7606   -0.0407    0.5381 H   0  0  0  0  0  0  0  0  0  0  0  0
   -1.2252   -0.0841    1.4117 H   0  0  0  0  0  0  0  0  0  0  0  0
   -1.8423   -2.0985   -0.0110 H   0  0  0  0  0  0  0  0  0  0  0  0
   -1.8555   -1.0498   -1.4398 H   0  0  0  0  0  0  0  0  0  0  0  0
    0.3875   -1.0332   -1.6885 H   0  0  0  0  0  0  0  0  0  0  0  0
    0.1839   -2.6167   -0.9214 H   0  0  0  0  0  0  0  0  0  0  0  0
    1.7859   -2.0193    0.5476 H   0  0  0  0  0  0  0  0  0  0  0  0
    0.6234   -0.9428    1.3380 H   0  0  0  0  0  0  0  0  0  0  0  0
    1.6905    0.2384   -1.1738 H   0  0  0  0  0  0  0  0  0  0  0  0
    2.9144   -0.1130    0.0778 H   0  0  0  0  0  0  0  0  0  0  0  0
    2.1381    2.0325    0.6291 H   0  0  0  0  0  0  0  0  0  0  0  0
    1.1721    0.9611    1.7328 H   0  0  0  0  0  0  0  0  0  0  0  0
  1  2  2  0
  2  3  1  0
  3  4  1  0
  4  5  1  0
  5  6  1  0
  6  7  1  0
  7  8  1  0
  8  9  1  0
  9  2  1  0
  3 10  1  0
  3 11  1  0
  4 12  1  0
  4 13  1  0
  5 14  1  0
  5 15  1  0
  6 16  1  0
  6 17  1  0
  7 18  1  0
  7 19  1  0
  8 20  1  0
  8 21  1  0
  9 22  1  0
  9 23  1  0
M  END
