
     RDKit          3D

 16 17  0  0  0  0  0  0  0  0999 V2000
   -2.6205   -0.0577    0.8534 O   0  0  0  0  0  0  0  0  0  0  0  0
   -1.5341   -0.0227    0.3088 C   0  0  0  0  0  0  0  0  0  0  0  0
   -0.6942    1.1732    0.1884 C   0  0  0  0  0  0  0  0  0  0  0  0
    0.6452    0.6930   -0.3365 C   0  0  0  0  0  0  0  0  0  0  0  0
    1.5685    0.1332    0.6986 C   0  0  0  0  0  0  0  0  0  0  0  0
    1.4308   -1.1473    0.1847 O   0  0  0  0  0  0  0  0  0  0  0  0
    0.4905   -0.7371   -0.7374 C   0  0  0  0  0  0  0  0  0  0  0  0
   -0.8850   -1.1954   -0.3236 C   0  0  0  0  0  0  0  0  0  0  0  0
   -1.1116    1.8546   -0.5931 H   0  0  0  0  0  0  0  0  0  0  0  0
   -0.6063    1.6967    1.1593 H   0  0  0  0  0  0  0  0  0  0  0  0
    1.1018    1.3744   -1.0785 H   0  0  0  0  0  0  0  0  0  0  0  0
    1.1819    0.2582    1.7320 H   0  0  0  0  0  0  0  0  0  0  0  0
    2.6181    0.4463    0.6505 H   0  0  0  0  0  0  0  0  0  0  0  0
    0.7136   -0.8937   -1.7903 H   0  0  0  0  0  0  0  0  0  0  0  0
   -1.4402   -1.4898   -1.2426 H   0  0  0  0  0  0  0  0  0  0  0  0
   -0.8584   -2.0858    0.3262 H   0  0  0  0  0  0  0  0  0  0  0  0
  1  2  2  0
  2  3  1  0
  3  4  1  0
  4  5  1  0
  5  6  1  0
  6  7  1  0
  7  8  1  0
  8  2  1  0
  7  4  1  0
  3  9  1  0
  3 10  1  0
  4 11  1  0
  5 12  1  0
  5 13  1  0
  7 14  1  0
  8 15  1  0
  8 16  1  0
M  END
