
     RDKit          3D

 15 16  0  0  0  0  0  0  0  0999 V2000
    2.9693   -1.0221    0.6517 O   0  0  0  0  0  0  0  0  0  0  0  0
    1.9302   -0.6817    0.0286 C   0  0  0  0  0  0  0  0  0  0  0  0
    1.6888    0.6317   -0.3679 O   0  0  0  0  0  0  0  0  0  0  0  0
    0.2902    0.7597   -0.6313 C   0  0  0  0  0  0  0  0  0  0  0  0
   -0.4163    1.2576    0.6049 C   0  0  0  0  0  0  0  0  0  0  0  0
   -1.6891    0.6742    0.4452 O   0  0  0  0  0  0  0  0  0  0  0  0
   -1.3325   -0.6736    0.2854 C   0  0  0  0  0  0  0  0  0  0  0  0
   -0.2322   -0.6473   -0.7536 C   0  0  0  0  0  0  0  0  0  0  0  0
    0.8627   -1.4631   -0.3809 O   0  0  0  0  0  0  0  0  0  0  0  0
    0.1510    1.3780   -1.5086 H   0  0  0  0  0  0  0  0  0  0  0  0
    0.0603    0.7323    1.4705 H   0  0  0  0  0  0  0  0  0  0  0  0
   -0.4493    2.3379    0.7031 H   0  0  0  0  0  0  0  0  0  0  0  0
   -0.9942   -1.1160    1.2475 H   0  0  0  0  0  0  0  0  0  0  0  0
   -2.2097   -1.2788   -0.0442 H   0  0  0  0  0  0  0  0  0  0  0  0
   -0.6291   -0.8888   -1.7504 H   0  0  0  0  0  0  0  0  0  0  0  0
  1  2  2  0
  2  3  1  0
  3  4  1  0
  4  5  1  0
  5  6  1  0
  6  7  1  0
  7  8  1  0
  8  9  1  0
  9  2  1  0
  8  4  1  0
  4 10  1  0
  5 11  1  0
  5 12  1  0
  7 13  1  0
  7 14  1  0
  8 15  1  0
M  END
