
     RDKit          3D

 19 19  0  0  0  0  0  0  0  0999 V2000
   -1.2815    2.1920   -0.6589 O   0  0  0  0  0  0  0  0  0  0  0  0
   -0.7283    1.1218   -0.5704 C   0  0  0  0  0  0  0  0  0  0  0  0
    0.7205    1.0573   -0.8576 C   0  0  0  0  0  0  0  0  0  0  0  0
    1.3314    0.2259    0.2752 C   0  0  0  0  0  0  0  0  0  0  0  0
    2.6952    0.1827    0.2219 O   0  0  0  0  0  0  0  0  0  0  0  0
    0.6835   -1.1385    0.1652 C   0  0  0  0  0  0  0  0  0  0  0  0
   -0.7142   -0.9706    0.7649 C   0  0  0  0  0  0  0  0  0  0  0  0
   -1.5028   -0.0689   -0.1845 C   0  0  0  0  0  0  0  0  0  0  0  0
   -2.6893    0.3119    0.4681 O   0  0  0  0  0  0  0  0  0  0  0  0
    1.1740    2.0721   -0.8834 H   0  0  0  0  0  0  0  0  0  0  0  0
    0.8912    0.5351   -1.8231 H   0  0  0  0  0  0  0  0  0  0  0  0
    1.0204    0.7384    1.2256 H   0  0  0  0  0  0  0  0  0  0  0  0
    3.0835    0.4164   -0.6651 H   0  0  0  0  0  0  0  0  0  0  0  0
    0.5216   -1.3983   -0.8940 H   0  0  0  0  0  0  0  0  0  0  0  0
    1.2875   -1.8564    0.7216 H   0  0  0  0  0  0  0  0  0  0  0  0
   -0.5720   -0.4524    1.7282 H   0  0  0  0  0  0  0  0  0  0  0  0
   -1.2099   -1.9331    0.8504 H   0  0  0  0  0  0  0  0  0  0  0  0
   -1.8347   -0.6780   -1.0545 H   0  0  0  0  0  0  0  0  0  0  0  0
   -2.8762   -0.3572    1.1703 H   0  0  0  0  0  0  0  0  0  0  0  0
  1  2  2  0
  2  3  1  0
  3  4  1  0
  4  5  1  0
  4  6  1  0
  6  7  1  0
  7  8  1  0
  8  9  1  0
  8  2  1  0
  3 10  1  0
  3 11  1  0
  4 12  1  0
  5 13  1  0
  6 14  1  0
  6 15  1  0
  7 16  1  0
  7 17  1  0
  8 18  1  0
  9 19  1  0
M  END
