
     RDKit          3D

 21 22  0  0  0  0  0  0  0  0999 V2000
   -1.6674    2.1612    0.5699 O   0  0  0  0  0  0  0  0  0  0  0  0
   -1.0690    1.1451    0.2631 C   0  0  0  0  0  0  0  0  0  0  0  0
   -1.6952   -0.1741    0.5128 C   0  0  0  0  0  0  0  0  0  0  0  0
   -1.0148   -1.2897   -0.2135 C   0  0  0  0  0  0  0  0  0  0  0  0
    0.4538   -1.0400   -0.4576 C   0  0  0  0  0  0  0  0  0  0  0  0
    1.1956   -0.6044    0.7581 C   0  0  0  0  0  0  0  0  0  0  0  0
    1.2817    0.9080    0.7277 C   0  0  0  0  0  0  0  0  0  0  0  0
    0.2682    1.2806   -0.3502 C   0  0  0  0  0  0  0  0  0  0  0  0
    0.5289    0.1892   -1.3751 C   0  0  0  0  0  0  0  0  0  0  0  0
   -1.7814   -0.4235    1.5877 H   0  0  0  0  0  0  0  0  0  0  0  0
   -2.7604   -0.0799    0.1459 H   0  0  0  0  0  0  0  0  0  0  0  0
   -1.4877   -1.3451   -1.2366 H   0  0  0  0  0  0  0  0  0  0  0  0
   -1.2019   -2.2567    0.3084 H   0  0  0  0  0  0  0  0  0  0  0  0
    0.8743   -1.8963   -0.9852 H   0  0  0  0  0  0  0  0  0  0  0  0
    2.2485   -0.9727    0.6834 H   0  0  0  0  0  0  0  0  0  0  0  0
    0.7964   -0.9792    1.7084 H   0  0  0  0  0  0  0  0  0  0  0  0
    0.9672    1.3698    1.6783 H   0  0  0  0  0  0  0  0  0  0  0  0
    2.2658    1.2613    0.3643 H   0  0  0  0  0  0  0  0  0  0  0  0
    0.4547    2.2512   -0.7982 H   0  0  0  0  0  0  0  0  0  0  0  0
    1.5665    0.3362   -1.7272 H   0  0  0  0  0  0  0  0  0  0  0  0
   -0.2237    0.1589   -2.1643 H   0  0  0  0  0  0  0  0  0  0  0  0
  1  2  2  0
  2  3  1  0
  3  4  1  0
  4  5  1  0
  5  6  1  0
  6  7  1  0
  7  8  1  0
  8  9  1  0
  8  2  1  0
  9  5  1  0
  3 10  1  0
  3 11  1  0
  4 12  1  0
  4 13  1  0
  5 14  1  0
  6 15  1  0
  6 16  1  0
  7 17  1  0
  7 18  1  0
  8 19  1  0
  9 20  1  0
  9 21  1  0
M  END
