
     RDKit          3D

 15 15  0  0  0  0  0  0  0  0999 V2000
    2.5801    1.3398   -0.2979 O   0  0  0  0  0  0  0  0  0  0  0  0
    1.5470    0.6651   -0.2566 C   0  0  0  0  0  0  0  0  0  0  0  0
    1.5680   -0.8104   -0.1473 C   0  0  0  0  0  0  0  0  0  0  0  0
    0.4580   -1.4942   -0.1131 C   0  0  0  0  0  0  0  0  0  0  0  0
   -0.8653   -0.8788   -0.1825 C   0  0  0  0  0  0  0  0  0  0  0  0
   -0.8386    0.4994    0.4161 C   0  0  0  0  0  0  0  0  0  0  0  0
   -2.0917    1.1187    0.3066 O   0  0  0  0  0  0  0  0  0  0  0  0
    0.2016    1.2660   -0.3142 C   0  0  0  0  0  0  0  0  0  0  0  0
    0.0208    2.3316   -0.9414 O   0  0  0  0  0  0  0  0  0  0  0  0
    2.5597   -1.2669   -0.0991 H   0  0  0  0  0  0  0  0  0  0  0  0
    0.5041   -2.5842   -0.0283 H   0  0  0  0  0  0  0  0  0  0  0  0
   -1.1880   -0.7249   -1.2654 H   0  0  0  0  0  0  0  0  0  0  0  0
   -1.6618   -1.5167    0.2790 H   0  0  0  0  0  0  0  0  0  0  0  0
   -0.5186    0.4655    1.4911 H   0  0  0  0  0  0  0  0  0  0  0  0
   -2.2752    1.5902    1.1530 H   0  0  0  0  0  0  0  0  0  0  0  0
  1  2  2  0
  2  3  1  0
  3  4  2  0
  4  5  1  0
  5  6  1  0
  6  7  1  0
  6  8  1  0
  8  9  2  0
  8  2  1  0
  3 10  1  0
  4 11  1  0
  5 12  1  0
  5 13  1  0
  6 14  1  0
  7 15  1  0
M  END
