
     RDKit          3D

 14 14  0  0  0  0  0  0  0  0999 V2000
    2.7819   -0.6602   -0.9582 O   0  0  0  0  0  0  0  0  0  0  0  0
    1.6168   -0.3912   -0.5715 C   0  0  0  0  0  0  0  0  0  0  0  0
    1.3192    0.9386   -0.0541 C   0  0  0  0  0  0  0  0  0  0  0  0
    0.0891    1.2182    0.3527 C   0  0  0  0  0  0  0  0  0  0  0  0
   -1.0092    0.2203    0.3019 C   0  0  0  0  0  0  0  0  0  0  0  0
   -1.7743    0.5053   -0.8199 O   0  0  0  0  0  0  0  0  0  0  0  0
   -0.4723   -1.1777    0.2984 C   0  0  0  0  0  0  0  0  0  0  0  0
    0.5873   -1.3172   -0.6160 O   0  0  0  0  0  0  0  0  0  0  0  0
    2.0941    1.6985    0.0003 H   0  0  0  0  0  0  0  0  0  0  0  0
   -0.0933    2.2363    0.7372 H   0  0  0  0  0  0  0  0  0  0  0  0
   -1.5854    0.3493    1.2494 H   0  0  0  0  0  0  0  0  0  0  0  0
   -2.1732   -0.2844   -1.2392 H   0  0  0  0  0  0  0  0  0  0  0  0
   -0.1267   -1.4319    1.3069 H   0  0  0  0  0  0  0  0  0  0  0  0
   -1.2540   -1.9037    0.0120 H   0  0  0  0  0  0  0  0  0  0  0  0
  1  2  2  0
  2  3  1  0
  3  4  2  0
  4  5  1  0
  5  6  1  0
  5  7  1  0
  7  8  1  0
  8  2  1  0
  3  9  1  0
  4 10  1  0
  5 11  1  0
  6 12  1  0
  7 13  1  0
  7 14  1  0
M  END
