
     RDKit          3D

 19 19  0  0  0  0  0  0  0  0999 V2000
    2.4811   -1.1671    1.5969 O   0  0  0  0  0  0  0  0  0  0  0  0
    1.5528   -0.4674    1.1538 C   0  0  0  0  0  0  0  0  0  0  0  0
    1.7736    0.7999    0.3871 C   0  0  0  0  0  0  0  0  0  0  0  0
    1.1191    0.7420   -0.9775 C   0  0  0  0  0  0  0  0  0  0  0  0
    0.0018   -0.2976   -0.9597 C   0  0  0  0  0  0  0  0  0  0  0  0
   -0.6806   -0.1640    0.3862 C   0  0  0  0  0  0  0  0  0  0  0  0
   -2.0258   -0.8559    0.3703 C   0  0  0  0  0  0  0  0  0  0  0  0
   -2.8105   -0.1761   -0.5708 O   0  0  0  0  0  0  0  0  0  0  0  0
    0.1943   -0.7993    1.3301 O   0  0  0  0  0  0  0  0  0  0  0  0
    1.2819    1.6037    1.0089 H   0  0  0  0  0  0  0  0  0  0  0  0
    2.8601    0.9726    0.2751 H   0  0  0  0  0  0  0  0  0  0  0  0
    0.5935    1.7282   -1.1395 H   0  0  0  0  0  0  0  0  0  0  0  0
    1.8268    0.5424   -1.7887 H   0  0  0  0  0  0  0  0  0  0  0  0
    0.4999   -1.3072   -1.0401 H   0  0  0  0  0  0  0  0  0  0  0  0
   -0.6807   -0.1714   -1.8084 H   0  0  0  0  0  0  0  0  0  0  0  0
   -0.7881    0.9055    0.6636 H   0  0  0  0  0  0  0  0  0  0  0  0
   -1.8926   -1.9103    0.1070 H   0  0  0  0  0  0  0  0  0  0  0  0
   -2.5212   -0.7718    1.3428 H   0  0  0  0  0  0  0  0  0  0  0  0
   -2.7854    0.7939   -0.3370 H   0  0  0  0  0  0  0  0  0  0  0  0
  1  2  2  0
  2  3  1  0
  3  4  1  0
  4  5  1  0
  5  6  1  0
  6  7  1  0
  7  8  1  0
  6  9  1  0
  9  2  1  0
  3 10  1  0
  3 11  1  0
  4 12  1  0
  4 13  1  0
  5 14  1  0
  5 15  1  0
  6 16  1  0
  7 17  1  0
  7 18  1  0
  8 19  1  0
M  END
