
     RDKit          3D

 19 20  0  0  0  0  0  0  0  0999 V2000
    2.0993    1.1433   -1.0823 O   0  0  0  0  0  0  0  0  0  0  0  0
    1.3702    0.6142   -0.2840 C   0  0  0  0  0  0  0  0  0  0  0  0
    0.4054    1.4762    0.4611 C   0  0  0  0  0  0  0  0  0  0  0  0
   -0.9480    1.2968   -0.1746 C   0  0  0  0  0  0  0  0  0  0  0  0
   -1.3711   -0.1096   -0.3417 C   0  0  0  0  0  0  0  0  0  0  0  0
   -0.8304   -1.0798    0.6378 C   0  0  0  0  0  0  0  0  0  0  0  0
    0.1504   -1.4854   -0.4398 C   0  0  0  0  0  0  0  0  0  0  0  0
    1.4881   -0.8670   -0.1008 C   0  0  0  0  0  0  0  0  0  0  0  0
   -0.5828   -0.7015   -1.3297 O   0  0  0  0  0  0  0  0  0  0  0  0
    0.3823    1.1799    1.5094 H   0  0  0  0  0  0  0  0  0  0  0  0
    0.6663    2.5530    0.3993 H   0  0  0  0  0  0  0  0  0  0  0  0
   -0.9627    1.7847   -1.1894 H   0  0  0  0  0  0  0  0  0  0  0  0
   -1.6693    1.9045    0.4344 H   0  0  0  0  0  0  0  0  0  0  0  0
   -2.4643   -0.1803   -0.5303 H   0  0  0  0  0  0  0  0  0  0  0  0
   -0.3776   -0.7128    1.5570 H   0  0  0  0  0  0  0  0  0  0  0  0
   -1.5511   -1.9373    0.7885 H   0  0  0  0  0  0  0  0  0  0  0  0
    0.1989   -2.5578   -0.6675 H   0  0  0  0  0  0  0  0  0  0  0  0
    2.3213   -1.3060   -0.6463 H   0  0  0  0  0  0  0  0  0  0  0  0
    1.6752   -1.0153    0.9990 H   0  0  0  0  0  0  0  0  0  0  0  0
  1  2  2  0
  2  3  1  0
  3  4  1  0
  4  5  1  0
  5  6  1  0
  6  7  1  0
  7  8  1  0
  7  9  1  0
  8  2  1  0
  9  5  1  0
  3 10  1  0
  3 11  1  0
  4 12  1  0
  4 13  1  0
  5 14  1  0
  6 15  1  0
  6 16  1  0
  7 17  1  0
  8 18  1  0
  8 19  1  0
M  END
