
     RDKit          3D

 17 19  0  0  0  0  0  0  0  0999 V2000
    0.2700   -2.2778    0.3855 O   0  0  0  0  0  0  0  0  0  0  0  0
    0.1174   -1.1231    0.0240 C   0  0  0  0  0  0  0  0  0  0  0  0
    0.9368    0.0322   -0.3488 C   0  0  0  0  0  0  0  0  0  0  0  0
    2.3291    0.0405   -0.6481 C   0  0  0  0  0  0  0  0  0  0  0  0
    1.7633    0.7764    0.5977 C   0  0  0  0  0  0  0  0  0  0  0  0
   -0.0928    0.5687   -1.0714 O   0  0  0  0  0  0  0  0  0  0  0  0
   -0.9423   -0.1603   -0.2667 C   0  0  0  0  0  0  0  0  0  0  0  0
   -1.8583    0.4039    0.6998 C   0  0  0  0  0  0  0  0  0  0  0  0
   -2.3224   -0.4395   -0.5040 C   0  0  0  0  0  0  0  0  0  0  0  0
    2.7813    0.6741   -1.4260 H   0  0  0  0  0  0  0  0  0  0  0  0
    2.9783   -0.8414   -0.3937 H   0  0  0  0  0  0  0  0  0  0  0  0
    1.9450    0.2663    1.5831 H   0  0  0  0  0  0  0  0  0  0  0  0
    1.7943    1.8813    0.5629 H   0  0  0  0  0  0  0  0  0  0  0  0
   -2.1319    1.4937    0.6307 H   0  0  0  0  0  0  0  0  0  0  0  0
   -1.9159   -0.0421    1.6975 H   0  0  0  0  0  0  0  0  0  0  0  0
   -2.8684    0.1289   -1.3131 H   0  0  0  0  0  0  0  0  0  0  0  0
   -2.7837   -1.3816   -0.2094 H   0  0  0  0  0  0  0  0  0  0  0  0
  1  2  2  0
  2  3  1  0
  3  4  1  0
  4  5  1  0
  3  6  1  0
  6  7  1  0
  7  8  1  0
  8  9  1  0
  7  2  1  0
  5  3  1  0
  9  7  1  0
  4 10  1  0
  4 11  1  0
  5 12  1  0
  5 13  1  0
  8 14  1  0
  8 15  1  0
  9 16  1  0
  9 17  1  0
M  END
