
     RDKit          3D

 17 18  0  0  0  0  0  0  0  0999 V2000
    1.8653    0.8152   -2.0192 O   0  0  0  0  0  0  0  0  0  0  0  0
    1.5450    0.5207   -0.9139 C   0  0  0  0  0  0  0  0  0  0  0  0
    2.1584    0.0708    0.3453 C   0  0  0  0  0  0  0  0  0  0  0  0
    1.1397    0.7825    1.0092 O   0  0  0  0  0  0  0  0  0  0  0  0
    0.3317    0.4157   -0.0915 C   0  0  0  0  0  0  0  0  0  0  0  0
   -0.7713    1.3095   -0.3886 C   0  0  0  0  0  0  0  0  0  0  0  0
   -1.8906    0.6211   -0.5703 C   0  0  0  0  0  0  0  0  0  0  0  0
   -1.6260   -0.8406   -0.4055 C   0  0  0  0  0  0  0  0  0  0  0  0
   -0.2137   -0.9723    0.0982 C   0  0  0  0  0  0  0  0  0  0  0  0
    3.1768    0.4456    0.5537 H   0  0  0  0  0  0  0  0  0  0  0  0
    2.0135   -1.0244    0.5817 H   0  0  0  0  0  0  0  0  0  0  0  0
   -0.7267    2.3841   -0.4598 H   0  0  0  0  0  0  0  0  0  0  0  0
   -2.8885    0.9810   -0.8053 H   0  0  0  0  0  0  0  0  0  0  0  0
   -1.7867   -1.3740   -1.3557 H   0  0  0  0  0  0  0  0  0  0  0  0
   -2.3743   -1.2121    0.3438 H   0  0  0  0  0  0  0  0  0  0  0  0
    0.3082   -1.7414   -0.4969 H   0  0  0  0  0  0  0  0  0  0  0  0
   -0.2609   -1.1816    1.1730 H   0  0  0  0  0  0  0  0  0  0  0  0
  1  2  2  0
  2  3  1  0
  3  4  1  0
  4  5  1  0
  5  6  1  0
  6  7  2  0
  7  8  1  0
  8  9  1  0
  5  2  1  0
  9  5  1  0
  3 10  1  0
  3 11  1  0
  6 12  1  0
  7 13  1  0
  8 14  1  0
  8 15  1  0
  9 16  1  0
  9 17  1  0
M  END
