
     RDKit          3D

 17 19  0  0  0  0  0  0  0  0999 V2000
   -1.5141    0.1586    2.2139 O   0  0  0  0  0  0  0  0  0  0  0  0
   -0.9281    0.0487    1.1617 C   0  0  0  0  0  0  0  0  0  0  0  0
   -0.6880    1.1479    0.1941 C   0  0  0  0  0  0  0  0  0  0  0  0
   -0.8829    0.4145   -1.1218 C   0  0  0  0  0  0  0  0  0  0  0  0
   -0.1460   -0.8690   -0.9091 C   0  0  0  0  0  0  0  0  0  0  0  0
    0.9976   -0.8200   -0.0098 C   0  0  0  0  0  0  0  0  0  0  0  0
    1.5326    0.5288    0.3245 C   0  0  0  0  0  0  0  0  0  0  0  0
    0.6417    1.5626    0.2211 O   0  0  0  0  0  0  0  0  0  0  0  0
   -0.3191   -1.1496    0.5765 C   0  0  0  0  0  0  0  0  0  0  0  0
   -1.3566    1.9981    0.3048 H   0  0  0  0  0  0  0  0  0  0  0  0
   -0.5337    1.0077   -1.9649 H   0  0  0  0  0  0  0  0  0  0  0  0
   -1.9705    0.1773   -1.1837 H   0  0  0  0  0  0  0  0  0  0  0  0
   -0.3316   -1.7266   -1.5714 H   0  0  0  0  0  0  0  0  0  0  0  0
    1.7315   -1.6255   -0.0449 H   0  0  0  0  0  0  0  0  0  0  0  0
    1.9955    0.5635    1.3339 H   0  0  0  0  0  0  0  0  0  0  0  0
    2.3757    0.7382   -0.3973 H   0  0  0  0  0  0  0  0  0  0  0  0
   -0.6038   -2.1552    0.8723 H   0  0  0  0  0  0  0  0  0  0  0  0
  1  2  2  0
  2  3  1  0
  3  4  1  0
  4  5  1  0
  5  6  1  0
  6  7  1  0
  7  8  1  0
  6  9  1  0
  9  2  1  0
  8  3  1  0
  9  5  1  0
  3 10  1  0
  4 11  1  0
  4 12  1  0
  5 13  1  0
  6 14  1  0
  7 15  1  0
  7 16  1  0
  9 17  1  0
M  END
