
     RDKit          3D

 14 14  0  0  0  0  0  0  0  0999 V2000
   -2.0405    1.8956   -0.3268 O   0  0  0  0  0  0  0  0  0  0  0  0
   -1.1280    1.0519   -0.0894 C   0  0  0  0  0  0  0  0  0  0  0  0
   -1.3604   -0.3760    0.0929 C   0  0  0  0  0  0  0  0  0  0  0  0
    0.0194   -0.9999    0.1825 C   0  0  0  0  0  0  0  0  0  0  0  0
    0.9905    0.1013    0.4498 C   0  0  0  0  0  0  0  0  0  0  0  0
    2.1740   -0.0927   -0.2967 O   0  0  0  0  0  0  0  0  0  0  0  0
    0.2888    1.3386    0.0431 C   0  0  0  0  0  0  0  0  0  0  0  0
    0.8444    2.4419   -0.1498 O   0  0  0  0  0  0  0  0  0  0  0  0
   -1.9394   -0.8094   -0.7670 H   0  0  0  0  0  0  0  0  0  0  0  0
   -1.9673   -0.5372    0.9924 H   0  0  0  0  0  0  0  0  0  0  0  0
    0.2340   -1.4036   -0.8443 H   0  0  0  0  0  0  0  0  0  0  0  0
    0.0603   -1.8337    0.8995 H   0  0  0  0  0  0  0  0  0  0  0  0
    1.2995    0.1995    1.4913 H   0  0  0  0  0  0  0  0  0  0  0  0
    2.5248   -0.9763   -0.0917 H   0  0  0  0  0  0  0  0  0  0  0  0
  1  2  2  0
  2  3  1  0
  3  4  1  0
  4  5  1  0
  5  6  1  0
  5  7  1  0
  7  8  2  0
  7  2  1  0
  3  9  1  0
  3 10  1  0
  4 11  1  0
  4 12  1  0
  5 13  1  0
  6 14  1  0
M  END
