
     RDKit          3D

 19 20  0  0  0  0  0  0  0  0999 V2000
    3.1442   -0.2185    0.5131 O   0  0  0  0  0  0  0  0  0  0  0  0
    2.0311   -0.0711    0.0973 C   0  0  0  0  0  0  0  0  0  0  0  0
    1.1645   -1.2563   -0.1912 C   0  0  0  0  0  0  0  0  0  0  0  0
   -0.0869   -1.0378    0.6681 C   0  0  0  0  0  0  0  0  0  0  0  0
   -0.6738    0.2904    0.2289 C   0  0  0  0  0  0  0  0  0  0  0  0
   -2.1194    0.5502    0.5156 C   0  0  0  0  0  0  0  0  0  0  0  0
   -1.6641    0.2425   -0.8629 C   0  0  0  0  0  0  0  0  0  0  0  0
    0.1650    1.3541    0.4420 O   0  0  0  0  0  0  0  0  0  0  0  0
    1.3954    1.2510   -0.1738 C   0  0  0  0  0  0  0  0  0  0  0  0
    1.6501   -2.2066    0.0201 H   0  0  0  0  0  0  0  0  0  0  0  0
    0.8453   -1.1750   -1.2712 H   0  0  0  0  0  0  0  0  0  0  0  0
    0.2538   -1.0235    1.7061 H   0  0  0  0  0  0  0  0  0  0  0  0
   -0.8382   -1.8079    0.4499 H   0  0  0  0  0  0  0  0  0  0  0  0
   -2.4305    1.5972    0.7497 H   0  0  0  0  0  0  0  0  0  0  0  0
   -2.7241   -0.1959    1.0646 H   0  0  0  0  0  0  0  0  0  0  0  0
   -1.5761    1.0317   -1.6376 H   0  0  0  0  0  0  0  0  0  0  0  0
   -1.9224   -0.7674   -1.2811 H   0  0  0  0  0  0  0  0  0  0  0  0
    1.3476    1.3846   -1.2696 H   0  0  0  0  0  0  0  0  0  0  0  0
    2.0386    2.0581    0.2319 H   0  0  0  0  0  0  0  0  0  0  0  0
  1  2  2  0
  2  3  1  0
  3  4  1  0
  4  5  1  0
  5  6  1  0
  6  7  1  0
  5  8  1  0
  8  9  1  0
  9  2  1  0
  7  5  1  0
  3 10  1  0
  3 11  1  0
  4 12  1  0
  4 13  1  0
  6 14  1  0
  6 15  1  0
  7 16  1  0
  7 17  1  0
  9 18  1  0
  9 19  1  0
M  END
