
     RDKit          3D

 14 14  0  0  0  0  0  0  0  0999 V2000
   -1.0164    2.1060   -1.1185 O   0  0  0  0  0  0  0  0  0  0  0  0
   -0.9596    0.9186   -0.7259 C   0  0  0  0  0  0  0  0  0  0  0  0
   -0.7494   -0.3465   -1.3121 O   0  0  0  0  0  0  0  0  0  0  0  0
   -0.0222   -0.6703   -0.1199 C   0  0  0  0  0  0  0  0  0  0  0  0
    1.2861    0.0698   -0.1338 C   0  0  0  0  0  0  0  0  0  0  0  0
    2.0497   -0.1979    0.9999 O   0  0  0  0  0  0  0  0  0  0  0  0
   -1.0812    0.1856    0.5691 C   0  0  0  0  0  0  0  0  0  0  0  0
   -2.3308   -0.4026    0.6482 O   0  0  0  0  0  0  0  0  0  0  0  0
   -0.0078   -1.7199    0.1519 H   0  0  0  0  0  0  0  0  0  0  0  0
    1.8174   -0.2165   -1.0780 H   0  0  0  0  0  0  0  0  0  0  0  0
    1.0728    1.1531   -0.2061 H   0  0  0  0  0  0  0  0  0  0  0  0
    2.9823   -0.3136    0.7233 H   0  0  0  0  0  0  0  0  0  0  0  0
   -0.7075    0.7031    1.4480 H   0  0  0  0  0  0  0  0  0  0  0  0
   -2.3335   -1.2689    0.1539 H   0  0  0  0  0  0  0  0  0  0  0  0
  1  2  2  0
  2  3  1  0
  3  4  1  0
  4  5  1  0
  5  6  1  0
  4  7  1  0
  7  8  1  0
  7  2  1  0
  4  9  1  0
  5 10  1  0
  5 11  1  0
  6 12  1  0
  7 13  1  0
  8 14  1  0
M  END
