
     RDKit          3D

 17 18  0  0  0  0  0  0  0  0999 V2000
    1.2037    2.4980   -0.0774 O   0  0  0  0  0  0  0  0  0  0  0  0
    0.3455    1.5787   -0.1119 C   0  0  0  0  0  0  0  0  0  0  0  0
   -0.8718    1.5758    0.5680 O   0  0  0  0  0  0  0  0  0  0  0  0
   -1.3339    0.2162    0.4935 C   0  0  0  0  0  0  0  0  0  0  0  0
   -0.2684   -0.5995    1.1578 C   0  0  0  0  0  0  0  0  0  0  0  0
    0.8044   -0.7895    0.0882 C   0  0  0  0  0  0  0  0  0  0  0  0
    2.0746   -0.6561    0.6147 O   0  0  0  0  0  0  0  0  0  0  0  0
    0.4386    0.3166   -0.8710 C   0  0  0  0  0  0  0  0  0  0  0  0
   -1.0627   -0.0134   -1.0036 C   0  0  0  0  0  0  0  0  0  0  0  0
   -2.3384    0.0641    0.7907 H   0  0  0  0  0  0  0  0  0  0  0  0
   -0.6616   -1.5392    1.5392 H   0  0  0  0  0  0  0  0  0  0  0  0
    0.1608   -0.0194    2.0213 H   0  0  0  0  0  0  0  0  0  0  0  0
    0.6079   -1.7411   -0.4071 H   0  0  0  0  0  0  0  0  0  0  0  0
    2.7121   -0.9085   -0.0956 H   0  0  0  0  0  0  0  0  0  0  0  0
    0.9603    0.3407   -1.7966 H   0  0  0  0  0  0  0  0  0  0  0  0
   -1.2046   -1.0541   -1.2866 H   0  0  0  0  0  0  0  0  0  0  0  0
   -1.5667    0.7306   -1.6234 H   0  0  0  0  0  0  0  0  0  0  0  0
  1  2  2  0
  2  3  1  0
  3  4  1  0
  4  5  1  0
  5  6  1  0
  6  7  1  0
  6  8  1  0
  8  9  1  0
  8  2  1  0
  9  4  1  0
  4 10  1  0
  5 11  1  0
  5 12  1  0
  6 13  1  0
  7 14  1  0
  8 15  1  0
  9 16  1  0
  9 17  1  0
M  END
