
     RDKit          3D

 15 17  0  0  0  0  0  0  0  0999 V2000
    0.0470   -1.3530    1.7728 O   0  0  0  0  0  0  0  0  0  0  0  0
   -0.0114   -0.7527    0.7324 C   0  0  0  0  0  0  0  0  0  0  0  0
    1.0332   -0.2230   -0.1943 C   0  0  0  0  0  0  0  0  0  0  0  0
    2.2213    0.3184    0.1843 C   0  0  0  0  0  0  0  0  0  0  0  0
    2.1233   -0.9873   -0.5248 O   0  0  0  0  0  0  0  0  0  0  0  0
    0.0213    0.2050   -1.1909 C   0  0  0  0  0  0  0  0  0  0  0  0
   -1.0214   -0.2203   -0.1829 C   0  0  0  0  0  0  0  0  0  0  0  0
   -2.2457    0.3422    0.0789 C   0  0  0  0  0  0  0  0  0  0  0  0
   -2.1306   -0.9230   -0.5604 O   0  0  0  0  0  0  0  0  0  0  0  0
    2.8081    1.0395   -0.4328 H   0  0  0  0  0  0  0  0  0  0  0  0
    2.6595    0.2096    1.2033 H   0  0  0  0  0  0  0  0  0  0  0  0
   -0.0823    1.2868   -1.3911 H   0  0  0  0  0  0  0  0  0  0  0  0
    0.0060   -0.3816   -2.1447 H   0  0  0  0  0  0  0  0  0  0  0  0
   -2.7309    1.0928   -0.5775 H   0  0  0  0  0  0  0  0  0  0  0  0
   -2.6976    0.3466    1.1049 H   0  0  0  0  0  0  0  0  0  0  0  0
  1  2  2  0
  2  3  1  0
  3  4  1  0
  4  5  1  0
  3  6  1  0
  6  7  1  0
  7  8  1  0
  8  9  1  0
  7  2  1  0
  5  3  1  0
  9  7  1  0
  4 10  1  0
  4 11  1  0
  6 12  1  0
  6 13  1  0
  8 14  1  0
  8 15  1  0
M  END
