
     RDKit          3D

 14 15  0  0  0  0  0  0  0  0999 V2000
    2.9069    0.0140   -0.8753 O   0  0  0  0  0  0  0  0  0  0  0  0
    1.9068   -0.2667   -0.1520 C   0  0  0  0  0  0  0  0  0  0  0  0
    1.0919   -1.3816   -0.2597 O   0  0  0  0  0  0  0  0  0  0  0  0
   -0.1796   -0.9820    0.1861 C   0  0  0  0  0  0  0  0  0  0  0  0
   -0.9627   -0.1956   -0.8391 C   0  0  0  0  0  0  0  0  0  0  0  0
   -0.8006    1.0248    0.0447 C   0  0  0  0  0  0  0  0  0  0  0  0
    0.0678    0.2430    1.0178 C   0  0  0  0  0  0  0  0  0  0  0  0
    1.4456    0.5041    0.8897 O   0  0  0  0  0  0  0  0  0  0  0  0
   -0.7443   -1.7565    0.7316 H   0  0  0  0  0  0  0  0  0  0  0  0
   -2.0152   -0.4549   -0.9461 H   0  0  0  0  0  0  0  0  0  0  0  0
   -0.4076   -0.1547   -1.8016 H   0  0  0  0  0  0  0  0  0  0  0  0
   -1.7367    1.4127    0.4833 H   0  0  0  0  0  0  0  0  0  0  0  0
   -0.2457    1.8069   -0.5263 H   0  0  0  0  0  0  0  0  0  0  0  0
   -0.3264    0.1864    2.0471 H   0  0  0  0  0  0  0  0  0  0  0  0
  1  2  2  0
  2  3  1  0
  3  4  1  0
  4  5  1  0
  5  6  1  0
  6  7  1  0
  7  8  1  0
  8  2  1  0
  7  4  1  0
  4  9  1  0
  5 10  1  0
  5 11  1  0
  6 12  1  0
  6 13  1  0
  7 14  1  0
M  END
