
     RDKit          3D

 17 18  0  0  0  0  0  0  0  0999 V2000
   -1.8193   -0.4072    2.4904 O   0  0  0  0  0  0  0  0  0  0  0  0
   -1.1387   -0.4222    1.4405 C   0  0  0  0  0  0  0  0  0  0  0  0
    0.2252   -0.4663    1.3909 O   0  0  0  0  0  0  0  0  0  0  0  0
    0.7150   -0.0655    0.1287 C   0  0  0  0  0  0  0  0  0  0  0  0
    2.0294   -0.4690   -0.3672 C   0  0  0  0  0  0  0  0  0  0  0  0
    1.8448    0.9063    0.1817 C   0  0  0  0  0  0  0  0  0  0  0  0
   -0.4740    0.1529   -0.7425 C   0  0  0  0  0  0  0  0  0  0  0  0
   -1.6390   -0.3962    0.0558 C   0  0  0  0  0  0  0  0  0  0  0  0
   -2.7852    0.3515   -0.1043 O   0  0  0  0  0  0  0  0  0  0  0  0
    2.2157   -0.5176   -1.4473 H   0  0  0  0  0  0  0  0  0  0  0  0
    2.6094   -1.2343    0.2209 H   0  0  0  0  0  0  0  0  0  0  0  0
    2.3751    1.1036    1.1495 H   0  0  0  0  0  0  0  0  0  0  0  0
    1.8385    1.7641   -0.5029 H   0  0  0  0  0  0  0  0  0  0  0  0
   -0.4557   -0.3727   -1.7027 H   0  0  0  0  0  0  0  0  0  0  0  0
   -0.6491    1.2544   -0.8648 H   0  0  0  0  0  0  0  0  0  0  0  0
   -1.8324   -1.4511   -0.2746 H   0  0  0  0  0  0  0  0  0  0  0  0
   -3.0597    0.2694   -1.0519 H   0  0  0  0  0  0  0  0  0  0  0  0
  1  2  2  0
  2  3  1  0
  3  4  1  0
  4  5  1  0
  5  6  1  0
  4  7  1  0
  7  8  1  0
  8  9  1  0
  8  2  1  0
  6  4  1  0
  5 10  1  0
  5 11  1  0
  6 12  1  0
  6 13  1  0
  7 14  1  0
  7 15  1  0
  8 16  1  0
  9 17  1  0
M  END
