
     RDKit          3D

 17 18  0  0  0  0  0  0  0  0999 V2000
    3.1021    0.4480   -0.3815 O   0  0  0  0  0  0  0  0  0  0  0  0
    2.0270   -0.0516    0.0323 C   0  0  0  0  0  0  0  0  0  0  0  0
    0.8767   -0.4569   -0.8551 C   0  0  0  0  0  0  0  0  0  0  0  0
   -0.2631   -0.0783    0.0506 C   0  0  0  0  0  0  0  0  0  0  0  0
   -0.7281    1.3213   -0.1560 C   0  0  0  0  0  0  0  0  0  0  0  0
   -2.0346    0.8929    0.0884 O   0  0  0  0  0  0  0  0  0  0  0  0
   -1.6305   -0.3772   -0.3842 C   0  0  0  0  0  0  0  0  0  0  0  0
    0.2059   -0.4853    1.3831 C   0  0  0  0  0  0  0  0  0  0  0  0
    1.6178   -0.3508    1.3132 O   0  0  0  0  0  0  0  0  0  0  0  0
    0.9391   -1.5623   -0.9461 H   0  0  0  0  0  0  0  0  0  0  0  0
    0.8869    0.0724   -1.8104 H   0  0  0  0  0  0  0  0  0  0  0  0
   -0.5510    1.6468   -1.2113 H   0  0  0  0  0  0  0  0  0  0  0  0
   -0.3095    2.0284    0.5682 H   0  0  0  0  0  0  0  0  0  0  0  0
   -1.7179   -0.3567   -1.5040 H   0  0  0  0  0  0  0  0  0  0  0  0
   -2.1758   -1.2132    0.0980 H   0  0  0  0  0  0  0  0  0  0  0  0
   -0.0115   -1.5839    1.5205 H   0  0  0  0  0  0  0  0  0  0  0  0
   -0.2337    0.1062    2.1943 H   0  0  0  0  0  0  0  0  0  0  0  0
  1  2  2  0
  2  3  1  0
  3  4  1  0
  4  5  1  0
  5  6  1  0
  6  7  1  0
  4  8  1  0
  8  9  1  0
  9  2  1  0
  7  4  1  0
  3 10  1  0
  3 11  1  0
  5 12  1  0
  5 13  1  0
  7 14  1  0
  7 15  1  0
  8 16  1  0
  8 17  1  0
M  END
