
     RDKit          3D

 14 15  0  0  0  0  0  0  0  0999 V2000
   -0.0471    0.3159    2.4927 O   0  0  0  0  0  0  0  0  0  0  0  0
    0.0259    0.3566    1.2897 C   0  0  0  0  0  0  0  0  0  0  0  0
    0.5629    1.2102    0.1816 C   0  0  0  0  0  0  0  0  0  0  0  0
   -0.7314    0.8155   -0.5534 C   0  0  0  0  0  0  0  0  0  0  0  0
   -0.4209   -0.5008    0.1566 C   0  0  0  0  0  0  0  0  0  0  0  0
   -1.3656   -1.3997    0.3180 O   0  0  0  0  0  0  0  0  0  0  0  0
    0.9026   -0.8348   -0.4708 C   0  0  0  0  0  0  0  0  0  0  0  0
    1.4882    0.4588   -0.4913 O   0  0  0  0  0  0  0  0  0  0  0  0
    0.7124    2.2445    0.3685 H   0  0  0  0  0  0  0  0  0  0  0  0
   -1.5754    1.3748   -0.1104 H   0  0  0  0  0  0  0  0  0  0  0  0
   -0.6502    0.7962   -1.6384 H   0  0  0  0  0  0  0  0  0  0  0  0
   -1.2678   -2.1598   -0.3108 H   0  0  0  0  0  0  0  0  0  0  0  0
    0.8291   -1.2664   -1.4662 H   0  0  0  0  0  0  0  0  0  0  0  0
    1.5373   -1.4111    0.2343 H   0  0  0  0  0  0  0  0  0  0  0  0
  1  2  2  0
  2  3  1  0
  3  4  1  0
  4  5  1  0
  5  6  1  0
  5  7  1  0
  7  8  1  0
  5  2  1  0
  8  3  1  0
  3  9  1  0
  4 10  1  0
  4 11  1  0
  6 12  1  0
  7 13  1  0
  7 14  1  0
M  END
