
     RDKit          3D

 16 16  0  0  0  0  0  0  0  0999 V2000
    2.8666   -1.5836    0.2503 O   0  0  0  0  0  0  0  0  0  0  0  0
    1.8005   -0.8952    0.0844 C   0  0  0  0  0  0  0  0  0  0  0  0
    1.6493    0.4803   -0.4017 C   0  0  0  0  0  0  0  0  0  0  0  0
    0.2025    0.7772   -0.1379 C   0  0  0  0  0  0  0  0  0  0  0  0
   -0.2700   -0.3481    0.7478 C   0  0  0  0  0  0  0  0  0  0  0  0
   -1.7342   -0.6111    0.4297 C   0  0  0  0  0  0  0  0  0  0  0  0
   -2.4996    0.4641    0.8168 O   0  0  0  0  0  0  0  0  0  0  0  0
    0.5479   -1.4167    0.3708 O   0  0  0  0  0  0  0  0  0  0  0  0
    1.8549    0.5878   -1.4898 H   0  0  0  0  0  0  0  0  0  0  0  0
    2.2811    1.2214    0.1094 H   0  0  0  0  0  0  0  0  0  0  0  0
    0.0721    1.7704    0.3379 H   0  0  0  0  0  0  0  0  0  0  0  0
   -0.3655    0.7098   -1.0888 H   0  0  0  0  0  0  0  0  0  0  0  0
   -0.1067   -0.1525    1.8236 H   0  0  0  0  0  0  0  0  0  0  0  0
   -2.1185   -1.5086    0.9597 H   0  0  0  0  0  0  0  0  0  0  0  0
   -1.7728   -0.7473   -0.6904 H   0  0  0  0  0  0  0  0  0  0  0  0
   -2.4076    1.2523    0.2234 H   0  0  0  0  0  0  0  0  0  0  0  0
  1  2  2  0
  2  3  1  0
  3  4  1  0
  4  5  1  0
  5  6  1  0
  6  7  1  0
  5  8  1  0
  8  2  1  0
  3  9  1  0
  3 10  1  0
  4 11  1  0
  4 12  1  0
  5 13  1  0
  6 14  1  0
  6 15  1  0
  7 16  1  0
M  END
