
     RDKit          3D

 19 19  0  0  0  0  0  0  0  0999 V2000
    0.1165    1.0823    1.9079 O   0  0  0  0  0  0  0  0  0  0  0  0
   -0.4692    0.5079    1.0229 C   0  0  0  0  0  0  0  0  0  0  0  0
   -1.7359    0.9341    0.3878 C   0  0  0  0  0  0  0  0  0  0  0  0
   -2.2879   -0.3289   -0.1426 C   0  0  0  0  0  0  0  0  0  0  0  0
   -1.3743   -1.2541   -0.1589 C   0  0  0  0  0  0  0  0  0  0  0  0
   -0.0636   -0.7628    0.3572 C   0  0  0  0  0  0  0  0  0  0  0  0
    0.8191   -0.5397   -0.8347 C   0  0  0  0  0  0  0  0  0  0  0  0
    2.1106    0.1702   -0.5221 C   0  0  0  0  0  0  0  0  0  0  0  0
    1.9107    1.4264    0.0197 O   0  0  0  0  0  0  0  0  0  0  0  0
   -1.5757    1.6772   -0.4270 H   0  0  0  0  0  0  0  0  0  0  0  0
   -2.4678    1.3314    1.1200 H   0  0  0  0  0  0  0  0  0  0  0  0
   -3.3178   -0.4556   -0.4709 H   0  0  0  0  0  0  0  0  0  0  0  0
   -1.5113   -2.2817   -0.5025 H   0  0  0  0  0  0  0  0  0  0  0  0
    0.3210   -1.5008    1.0642 H   0  0  0  0  0  0  0  0  0  0  0  0
    0.2499    0.0070   -1.6147 H   0  0  0  0  0  0  0  0  0  0  0  0
    1.0922   -1.5211   -1.2729 H   0  0  0  0  0  0  0  0  0  0  0  0
    2.6803    0.2116   -1.4844 H   0  0  0  0  0  0  0  0  0  0  0  0
    2.7134   -0.4800    0.1455 H   0  0  0  0  0  0  0  0  0  0  0  0
    2.7898    1.7765    0.2986 H   0  0  0  0  0  0  0  0  0  0  0  0
  1  2  2  0
  2  3  1  0
  3  4  1  0
  4  5  2  0
  5  6  1  0
  6  7  1  0
  7  8  1  0
  8  9  1  0
  6  2  1  0
  3 10  1  0
  3 11  1  0
  4 12  1  0
  5 13  1  0
  6 14  1  0
  7 15  1  0
  7 16  1  0
  8 17  1  0
  8 18  1  0
  9 19  1  0
M  END
