
     RDKit          3D

 17 18  0  0  0  0  0  0  0  0999 V2000
   -1.9345   -1.2452   -1.6287 O   0  0  0  0  0  0  0  0  0  0  0  0
   -1.4946   -0.5677   -0.7385 C   0  0  0  0  0  0  0  0  0  0  0  0
   -2.1661    0.2930    0.3021 C   0  0  0  0  0  0  0  0  0  0  0  0
   -1.0315    0.0689    1.1138 O   0  0  0  0  0  0  0  0  0  0  0  0
   -0.3248   -0.0928   -0.0508 C   0  0  0  0  0  0  0  0  0  0  0  0
    0.4192    1.0773   -0.5641 C   0  0  0  0  0  0  0  0  0  0  0  0
    1.6700    0.4477    0.0682 C   0  0  0  0  0  0  0  0  0  0  0  0
    0.9160   -0.8892   -0.0161 C   0  0  0  0  0  0  0  0  0  0  0  0
    1.0172   -1.6039    1.1909 O   0  0  0  0  0  0  0  0  0  0  0  0
   -3.0403   -0.1683    0.7793 H   0  0  0  0  0  0  0  0  0  0  0  0
   -2.2116    1.3521    0.0516 H   0  0  0  0  0  0  0  0  0  0  0  0
    0.1183    2.0183   -0.0578 H   0  0  0  0  0  0  0  0  0  0  0  0
    0.5718    1.1778   -1.6369 H   0  0  0  0  0  0  0  0  0  0  0  0
    2.5702    0.5054   -0.5421 H   0  0  0  0  0  0  0  0  0  0  0  0
    1.7782    0.7640    1.1243 H   0  0  0  0  0  0  0  0  0  0  0  0
    1.2040   -1.4784   -0.8866 H   0  0  0  0  0  0  0  0  0  0  0  0
    1.9385   -1.6589    1.4912 H   0  0  0  0  0  0  0  0  0  0  0  0
  1  2  2  0
  2  3  1  0
  3  4  1  0
  4  5  1  0
  5  6  1  0
  6  7  1  0
  7  8  1  0
  8  9  1  0
  5  2  1  0
  8  5  1  0
  3 10  1  0
  3 11  1  0
  6 12  1  0
  6 13  1  0
  7 14  1  0
  7 15  1  0
  8 16  1  0
  9 17  1  0
M  END
