
     RDKit          3D

 19 20  0  0  0  0  0  0  0  0999 V2000
   -1.0224    0.2384   -2.4074 O   0  0  0  0  0  0  0  0  0  0  0  0
   -0.9701   -0.0250   -1.2197 C   0  0  0  0  0  0  0  0  0  0  0  0
   -1.3119    0.8377   -0.0284 C   0  0  0  0  0  0  0  0  0  0  0  0
   -0.0690    1.5920    0.2929 C   0  0  0  0  0  0  0  0  0  0  0  0
    1.1966    1.2350    0.1042 C   0  0  0  0  0  0  0  0  0  0  0  0
    1.7024   -0.1177   -0.2737 C   0  0  0  0  0  0  0  0  0  0  0  0
    0.7780   -1.2181    0.1165 C   0  0  0  0  0  0  0  0  0  0  0  0
   -0.6257   -1.0975   -0.2990 C   0  0  0  0  0  0  0  0  0  0  0  0
   -1.4212   -0.4146    0.8063 C   0  0  0  0  0  0  0  0  0  0  0  0
   -2.2217    1.4205   -0.1193 H   0  0  0  0  0  0  0  0  0  0  0  0
   -0.2222    2.5655    0.7423 H   0  0  0  0  0  0  0  0  0  0  0  0
    1.9724    1.9959    0.2334 H   0  0  0  0  0  0  0  0  0  0  0  0
    2.0005   -0.1013   -1.3251 H   0  0  0  0  0  0  0  0  0  0  0  0
    2.6504   -0.2542    0.3170 H   0  0  0  0  0  0  0  0  0  0  0  0
    1.1969   -2.1676   -0.2446 H   0  0  0  0  0  0  0  0  0  0  0  0
    0.8082   -1.2883    1.2434 H   0  0  0  0  0  0  0  0  0  0  0  0
   -1.1024   -2.0604   -0.6325 H   0  0  0  0  0  0  0  0  0  0  0  0
   -2.4472   -0.7783    0.9184 H   0  0  0  0  0  0  0  0  0  0  0  0
   -0.8918   -0.3619    1.7753 H   0  0  0  0  0  0  0  0  0  0  0  0
  1  2  2  0
  2  3  1  0
  3  4  1  0
  4  5  2  0
  5  6  1  0
  6  7  1  0
  7  8  1  0
  8  9  1  0
  8  2  1  0
  9  3  1  0
  3 10  1  0
  4 11  1  0
  5 12  1  0
  6 13  1  0
  6 14  1  0
  7 15  1  0
  7 16  1  0
  8 17  1  0
  9 18  1  0
  9 19  1  0
M  END
