
     RDKit          3D

 21 21  0  0  0  0  0  0  0  0999 V2000
   -0.6269   -2.2806   -0.2859 O   0  0  0  0  0  0  0  0  0  0  0  0
   -0.0601   -1.2190   -0.1484 C   0  0  0  0  0  0  0  0  0  0  0  0
    1.3691   -1.1551   -0.5373 C   0  0  0  0  0  0  0  0  0  0  0  0
    1.9706   -0.0724    0.3535 C   0  0  0  0  0  0  0  0  0  0  0  0
    1.3896    1.2304   -0.1909 C   0  0  0  0  0  0  0  0  0  0  0  0
   -0.1046    1.2729   -0.0529 C   0  0  0  0  0  0  0  0  0  0  0  0
   -0.7151   -0.0280    0.3735 C   0  0  0  0  0  0  0  0  0  0  0  0
   -2.1698   -0.0290   -0.1186 C   0  0  0  0  0  0  0  0  0  0  0  0
   -2.7686   -1.2040    0.3780 O   0  0  0  0  0  0  0  0  0  0  0  0
    1.3848   -0.8077   -1.6103 H   0  0  0  0  0  0  0  0  0  0  0  0
    1.8962   -2.1220   -0.4242 H   0  0  0  0  0  0  0  0  0  0  0  0
    1.6072   -0.1608    1.3883 H   0  0  0  0  0  0  0  0  0  0  0  0
    3.0525   -0.0443    0.3011 H   0  0  0  0  0  0  0  0  0  0  0  0
    1.7033    1.2787   -1.2590 H   0  0  0  0  0  0  0  0  0  0  0  0
    1.8979    2.0414    0.3762 H   0  0  0  0  0  0  0  0  0  0  0  0
   -0.3391    2.0225    0.7367 H   0  0  0  0  0  0  0  0  0  0  0  0
   -0.5576    1.6681   -0.9869 H   0  0  0  0  0  0  0  0  0  0  0  0
   -0.7202   -0.0739    1.4816 H   0  0  0  0  0  0  0  0  0  0  0  0
   -2.6999    0.8462    0.2686 H   0  0  0  0  0  0  0  0  0  0  0  0
   -2.2017   -0.1227   -1.2193 H   0  0  0  0  0  0  0  0  0  0  0  0
   -3.3075   -1.0408    1.1761 H   0  0  0  0  0  0  0  0  0  0  0  0
  1  2  2  0
  2  3  1  0
  3  4  1  0
  4  5  1  0
  5  6  1  0
  6  7  1  0
  7  8  1  0
  8  9  1  0
  7  2  1  0
  3 10  1  0
  3 11  1  0
  4 12  1  0
  4 13  1  0
  5 14  1  0
  5 15  1  0
  6 16  1  0
  6 17  1  0
  7 18  1  0
  8 19  1  0
  8 20  1  0
  9 21  1  0
M  END
