
     RDKit          3D

 14 15  0  0  0  0  0  0  0  0999 V2000
    0.6307   -1.7165    1.6603 O   0  0  0  0  0  0  0  0  0  0  0  0
    0.2943   -1.0501    0.7517 C   0  0  0  0  0  0  0  0  0  0  0  0
   -1.0772   -0.6535    0.3766 C   0  0  0  0  0  0  0  0  0  0  0  0
   -0.9396    0.8499    0.2219 C   0  0  0  0  0  0  0  0  0  0  0  0
   -0.1145    0.3385   -0.9403 C   0  0  0  0  0  0  0  0  0  0  0  0
   -1.0548   -0.6993   -1.0155 O   0  0  0  0  0  0  0  0  0  0  0  0
    1.0754   -0.3828   -0.3163 C   0  0  0  0  0  0  0  0  0  0  0  0
    2.0427    0.4661    0.1378 O   0  0  0  0  0  0  0  0  0  0  0  0
   -1.9122   -1.0405    0.9012 H   0  0  0  0  0  0  0  0  0  0  0  0
   -1.8536    1.3233   -0.1306 H   0  0  0  0  0  0  0  0  0  0  0  0
   -0.3969    1.2821    1.0565 H   0  0  0  0  0  0  0  0  0  0  0  0
    0.0443    0.9575   -1.7868 H   0  0  0  0  0  0  0  0  0  0  0  0
    1.4434   -1.0851   -1.0845 H   0  0  0  0  0  0  0  0  0  0  0  0
    1.8180    1.4105    0.1682 H   0  0  0  0  0  0  0  0  0  0  0  0
  1  2  2  0
  2  3  1  0
  3  4  1  0
  4  5  1  0
  5  6  1  0
  5  7  1  0
  7  8  1  0
  7  2  1  0
  6  3  1  0
  3  9  1  0
  4 10  1  0
  4 11  1  0
  5 12  1  0
  7 13  1  0
  8 14  1  0
M  END
