
     RDKit          3D

 16 17  0  0  0  0  0  0  0  0999 V2000
    0.2257   -0.8718    2.1559 O   0  0  0  0  0  0  0  0  0  0  0  0
    0.4672   -0.5408    1.0184 C   0  0  0  0  0  0  0  0  0  0  0  0
    1.7103   -0.7624    0.2035 C   0  0  0  0  0  0  0  0  0  0  0  0
    1.7315    0.4806   -0.6162 C   0  0  0  0  0  0  0  0  0  0  0  0
    0.5156    1.0179   -0.6811 C   0  0  0  0  0  0  0  0  0  0  0  0
   -0.4243    0.2009    0.0766 C   0  0  0  0  0  0  0  0  0  0  0  0
   -1.7491    0.5945    0.5027 C   0  0  0  0  0  0  0  0  0  0  0  0
   -1.5835   -0.4729   -0.5511 C   0  0  0  0  0  0  0  0  0  0  0  0
    1.5052   -1.6405   -0.4308 H   0  0  0  0  0  0  0  0  0  0  0  0
    2.5904   -0.8690    0.8511 H   0  0  0  0  0  0  0  0  0  0  0  0
    2.6486    0.8532   -1.0772 H   0  0  0  0  0  0  0  0  0  0  0  0
    0.3154    1.9308   -1.2321 H   0  0  0  0  0  0  0  0  0  0  0  0
   -2.1410    1.5897    0.1770 H   0  0  0  0  0  0  0  0  0  0  0  0
   -2.1352    0.1838    1.4797 H   0  0  0  0  0  0  0  0  0  0  0  0
   -1.7725   -1.5325   -0.3037 H   0  0  0  0  0  0  0  0  0  0  0  0
   -1.9043   -0.1613   -1.5727 H   0  0  0  0  0  0  0  0  0  0  0  0
  1  2  2  0
  2  3  1  0
  3  4  1  0
  4  5  2  0
  5  6  1  0
  6  7  1  0
  7  8  1  0
  6  2  1  0
  8  6  1  0
  3  9  1  0
  3 10  1  0
  4 11  1  0
  5 12  1  0
  7 13  1  0
  7 14  1  0
  8 15  1  0
  8 16  1  0
M  END
