
     RDKit          3D

 16 17  0  0  0  0  0  0  0  0999 V2000
   -0.4396    2.2241    1.1089 O   0  0  0  0  0  0  0  0  0  0  0  0
   -0.3203    1.2911    0.3865 C   0  0  0  0  0  0  0  0  0  0  0  0
   -1.4694    0.4295    0.0810 C   0  0  0  0  0  0  0  0  0  0  0  0
   -0.9078   -0.9669   -0.1114 C   0  0  0  0  0  0  0  0  0  0  0  0
    0.5038   -0.8900   -0.6234 C   0  0  0  0  0  0  0  0  0  0  0  0
    1.4482   -0.3281    0.3886 C   0  0  0  0  0  0  0  0  0  0  0  0
    0.9627    0.9540   -0.2304 C   0  0  0  0  0  0  0  0  0  0  0  0
    0.6864    0.2338   -1.3902 O   0  0  0  0  0  0  0  0  0  0  0  0
   -1.9645    0.7407   -0.8763 H   0  0  0  0  0  0  0  0  0  0  0  0
   -2.2127    0.4371    0.9259 H   0  0  0  0  0  0  0  0  0  0  0  0
   -1.5625   -1.5771   -0.7567 H   0  0  0  0  0  0  0  0  0  0  0  0
   -0.8613   -1.4099    0.9217 H   0  0  0  0  0  0  0  0  0  0  0  0
    0.8557   -1.8374   -1.0863 H   0  0  0  0  0  0  0  0  0  0  0  0
    1.0828   -0.5330    1.4192 H   0  0  0  0  0  0  0  0  0  0  0  0
    2.5068   -0.5088    0.2337 H   0  0  0  0  0  0  0  0  0  0  0  0
    1.6917    1.7407   -0.3908 H   0  0  0  0  0  0  0  0  0  0  0  0
  1  2  2  0
  2  3  1  0
  3  4  1  0
  4  5  1  0
  5  6  1  0
  6  7  1  0
  7  8  1  0
  7  2  1  0
  8  5  1  0
  3  9  1  0
  3 10  1  0
  4 11  1  0
  4 12  1  0
  5 13  1  0
  6 14  1  0
  6 15  1  0
  7 16  1  0
M  END
