
     RDKit          3D

 13 14  0  0  0  0  0  0  0  0999 V2000
    1.5827    1.9338   -0.9237 O   0  0  0  0  0  0  0  0  0  0  0  0
    0.9675    0.9692   -0.4043 C   0  0  0  0  0  0  0  0  0  0  0  0
    1.5235   -0.3451   -0.2205 C   0  0  0  0  0  0  0  0  0  0  0  0
    0.6584   -1.1432    0.3972 C   0  0  0  0  0  0  0  0  0  0  0  0
   -0.5942   -0.4213    0.6949 C   0  0  0  0  0  0  0  0  0  0  0  0
   -1.4354    0.0678   -0.4913 C   0  0  0  0  0  0  0  0  0  0  0  0
   -0.4200    0.9148    0.1335 C   0  0  0  0  0  0  0  0  0  0  0  0
    2.5266   -0.6504   -0.5456 H   0  0  0  0  0  0  0  0  0  0  0  0
    0.8284   -2.1894    0.6582 H   0  0  0  0  0  0  0  0  0  0  0  0
   -1.1366   -0.6573    1.6137 H   0  0  0  0  0  0  0  0  0  0  0  0
   -1.2340   -0.5435   -1.3928 H   0  0  0  0  0  0  0  0  0  0  0  0
   -2.4945    0.2996   -0.2763 H   0  0  0  0  0  0  0  0  0  0  0  0
   -0.7723    1.7650    0.7570 H   0  0  0  0  0  0  0  0  0  0  0  0
  1  2  2  0
  2  3  1  0
  3  4  2  0
  4  5  1  0
  5  6  1  0
  6  7  1  0
  7  2  1  0
  7  5  1  0
  3  8  1  0
  4  9  1  0
  5 10  1  0
  6 11  1  0
  6 12  1  0
  7 13  1  0
M  END
