
     RDKit          3D

 15 16  0  0  0  0  0  0  0  0999 V2000
    0.6104   -2.4197   -0.3819 O   0  0  0  0  0  0  0  0  0  0  0  0
    0.5803   -1.3013    0.0485 C   0  0  0  0  0  0  0  0  0  0  0  0
    1.3657   -0.3949    0.9226 C   0  0  0  0  0  0  0  0  0  0  0  0
    1.8244    0.6372   -0.0500 C   0  0  0  0  0  0  0  0  0  0  0  0
    0.6737    0.8671   -0.7189 C   0  0  0  0  0  0  0  0  0  0  0  0
   -0.2515   -0.0580    0.0091 C   0  0  0  0  0  0  0  0  0  0  0  0
   -1.6324   -0.1455   -0.3905 C   0  0  0  0  0  0  0  0  0  0  0  0
   -2.3024    1.0348   -0.0723 O   0  0  0  0  0  0  0  0  0  0  0  0
    0.1176    0.1468    1.3131 O   0  0  0  0  0  0  0  0  0  0  0  0
    2.0138   -0.7714    1.6573 H   0  0  0  0  0  0  0  0  0  0  0  0
    2.8049    1.0740   -0.1778 H   0  0  0  0  0  0  0  0  0  0  0  0
    0.4721    1.5314   -1.5478 H   0  0  0  0  0  0  0  0  0  0  0  0
   -2.1171   -1.0345    0.0040 H   0  0  0  0  0  0  0  0  0  0  0  0
   -1.6828   -0.2366   -1.5143 H   0  0  0  0  0  0  0  0  0  0  0  0
   -2.4766    1.0706    0.8989 H   0  0  0  0  0  0  0  0  0  0  0  0
  1  2  2  0
  2  3  1  0
  3  4  1  0
  4  5  2  0
  5  6  1  0
  6  7  1  0
  7  8  1  0
  6  9  1  0
  6  2  1  0
  9  3  1  0
  3 10  1  0
  4 11  1  0
  5 12  1  0
  7 13  1  0
  7 14  1  0
  8 15  1  0
M  END
