
     RDKit          3D

 14 15  0  0  0  0  0  0  0  0999 V2000
   -0.6334    1.2635   -2.0761 O   0  0  0  0  0  0  0  0  0  0  0  0
   -0.4870    0.4881   -1.1576 C   0  0  0  0  0  0  0  0  0  0  0  0
   -1.5362    0.1759   -0.1583 C   0  0  0  0  0  0  0  0  0  0  0  0
   -0.7534    0.1101    1.0909 C   0  0  0  0  0  0  0  0  0  0  0  0
   -1.0483    0.5305    2.1768 O   0  0  0  0  0  0  0  0  0  0  0  0
    0.4989   -0.5906    0.7459 C   0  0  0  0  0  0  0  0  0  0  0  0
    1.6497    0.1818    0.2343 C   0  0  0  0  0  0  0  0  0  0  0  0
    0.6917   -0.3254   -0.7765 C   0  0  0  0  0  0  0  0  0  0  0  0
   -2.3452    0.9254   -0.1365 H   0  0  0  0  0  0  0  0  0  0  0  0
   -1.9046   -0.8456   -0.3927 H   0  0  0  0  0  0  0  0  0  0  0  0
    0.5988   -1.6537    1.0431 H   0  0  0  0  0  0  0  0  0  0  0  0
    2.6262   -0.3205    0.2747 H   0  0  0  0  0  0  0  0  0  0  0  0
    1.6608    1.2574    0.5245 H   0  0  0  0  0  0  0  0  0  0  0  0
    0.9822   -1.1970   -1.3926 H   0  0  0  0  0  0  0  0  0  0  0  0
  1  2  2  0
  2  3  1  0
  3  4  1  0
  4  5  2  0
  4  6  1  0
  6  7  1  0
  7  8  1  0
  8  2  1  0
  8  6  1  0
  3  9  1  0
  3 10  1  0
  6 11  1  0
  7 12  1  0
  7 13  1  0
  8 14  1  0
M  END
