
     RDKit          3D

 19 21  0  0  0  0  0  0  0  0999 V2000
    0.2691    2.4557   -1.0113 O   0  0  0  0  0  0  0  0  0  0  0  0
   -0.0292    1.4259   -0.4329 C   0  0  0  0  0  0  0  0  0  0  0  0
   -1.2402    1.1637    0.4332 C   0  0  0  0  0  0  0  0  0  0  0  0
   -1.7003   -0.1651   -0.1715 C   0  0  0  0  0  0  0  0  0  0  0  0
   -1.2666   -1.4107    0.4607 C   0  0  0  0  0  0  0  0  0  0  0  0
   -0.4019   -0.8724   -0.5869 C   0  0  0  0  0  0  0  0  0  0  0  0
    0.6703    0.1169   -0.3808 C   0  0  0  0  0  0  0  0  0  0  0  0
    2.0739   -0.0612   -0.6556 C   0  0  0  0  0  0  0  0  0  0  0  0
    1.6471   -0.0062    0.7638 C   0  0  0  0  0  0  0  0  0  0  0  0
   -0.8451    1.0021    1.4476 H   0  0  0  0  0  0  0  0  0  0  0  0
   -1.9811    1.9518    0.3353 H   0  0  0  0  0  0  0  0  0  0  0  0
   -2.4565   -0.1224   -0.9873 H   0  0  0  0  0  0  0  0  0  0  0  0
   -1.0021   -1.4006    1.5381 H   0  0  0  0  0  0  0  0  0  0  0  0
   -1.8459   -2.3311    0.1913 H   0  0  0  0  0  0  0  0  0  0  0  0
   -0.3947   -1.3753   -1.5887 H   0  0  0  0  0  0  0  0  0  0  0  0
    2.7236    0.7411   -1.0838 H   0  0  0  0  0  0  0  0  0  0  0  0
    2.4037   -1.0714   -1.0141 H   0  0  0  0  0  0  0  0  0  0  0  0
    1.5240   -0.9283    1.3518 H   0  0  0  0  0  0  0  0  0  0  0  0
    1.8519    0.8874    1.3911 H   0  0  0  0  0  0  0  0  0  0  0  0
  1  2  2  0
  2  3  1  0
  3  4  1  0
  4  5  1  0
  5  6  1  0
  6  7  1  0
  7  8  1  0
  8  9  1  0
  7  2  1  0
  6  4  1  0
  9  7  1  0
  3 10  1  0
  3 11  1  0
  4 12  1  0
  5 13  1  0
  5 14  1  0
  6 15  1  0
  8 16  1  0
  8 17  1  0
  9 18  1  0
  9 19  1  0
M  END
