
     RDKit          3D

 19 20  0  0  0  0  0  0  0  0999 V2000
   -0.8205    2.0728    0.8477 O   0  0  0  0  0  0  0  0  0  0  0  0
   -1.0129    0.9339    0.4786 C   0  0  0  0  0  0  0  0  0  0  0  0
   -2.2799    0.1618    0.4944 C   0  0  0  0  0  0  0  0  0  0  0  0
   -2.1287   -0.8670   -0.4235 O   0  0  0  0  0  0  0  0  0  0  0  0
   -0.8036   -1.1109   -0.6075 C   0  0  0  0  0  0  0  0  0  0  0  0
   -0.0016    0.0374   -0.0843 C   0  0  0  0  0  0  0  0  0  0  0  0
    1.0824   -0.4166    0.8645 C   0  0  0  0  0  0  0  0  0  0  0  0
    2.0917    0.2374   -0.0229 C   0  0  0  0  0  0  0  0  0  0  0  0
    1.0028    0.6372   -1.0049 C   0  0  0  0  0  0  0  0  0  0  0  0
   -3.1172    0.8092    0.1101 H   0  0  0  0  0  0  0  0  0  0  0  0
   -2.5298   -0.2299    1.5013 H   0  0  0  0  0  0  0  0  0  0  0  0
   -0.5094   -2.0586   -0.0895 H   0  0  0  0  0  0  0  0  0  0  0  0
   -0.5851   -1.2638   -1.6830 H   0  0  0  0  0  0  0  0  0  0  0  0
    0.9297    0.0335    1.8584 H   0  0  0  0  0  0  0  0  0  0  0  0
    1.1751   -1.5214    0.9075 H   0  0  0  0  0  0  0  0  0  0  0  0
    2.8106   -0.4512   -0.5224 H   0  0  0  0  0  0  0  0  0  0  0  0
    2.6223    1.0588    0.4605 H   0  0  0  0  0  0  0  0  0  0  0  0
    1.1001    0.1947   -2.0067 H   0  0  0  0  0  0  0  0  0  0  0  0
    0.9742    1.7427   -1.0785 H   0  0  0  0  0  0  0  0  0  0  0  0
  1  2  2  0
  2  3  1  0
  3  4  1  0
  4  5  1  0
  5  6  1  0
  6  7  1  0
  7  8  1  0
  8  9  1  0
  6  2  1  0
  9  6  1  0
  3 10  1  0
  3 11  1  0
  5 12  1  0
  5 13  1  0
  7 14  1  0
  7 15  1  0
  8 16  1  0
  8 17  1  0
  9 18  1  0
  9 19  1  0
M  END
