
     RDKit          3D

 17 18  0  0  0  0  0  0  0  0999 V2000
    1.6878    2.0786    0.0593 O   0  0  0  0  0  0  0  0  0  0  0  0
    1.2498    0.9613   -0.1118 C   0  0  0  0  0  0  0  0  0  0  0  0
    1.8400   -0.3008    0.3739 C   0  0  0  0  0  0  0  0  0  0  0  0
    1.1922   -1.3300   -0.3003 O   0  0  0  0  0  0  0  0  0  0  0  0
   -0.0670   -0.8744   -0.6505 C   0  0  0  0  0  0  0  0  0  0  0  0
   -1.0113   -1.0197    0.5034 C   0  0  0  0  0  0  0  0  0  0  0  0
   -1.7807    0.2388    0.5410 C   0  0  0  0  0  0  0  0  0  0  0  0
   -1.2114    1.1689   -0.2118 C   0  0  0  0  0  0  0  0  0  0  0  0
    0.0256    0.6193   -0.8463 C   0  0  0  0  0  0  0  0  0  0  0  0
    1.8124   -0.4017    1.4681 H   0  0  0  0  0  0  0  0  0  0  0  0
    2.9111   -0.3361    0.0185 H   0  0  0  0  0  0  0  0  0  0  0  0
   -0.4085   -1.3212   -1.5836 H   0  0  0  0  0  0  0  0  0  0  0  0
   -1.6741   -1.9039    0.4154 H   0  0  0  0  0  0  0  0  0  0  0  0
   -0.4102   -1.0579    1.4513 H   0  0  0  0  0  0  0  0  0  0  0  0
   -2.6856    0.3851    1.1048 H   0  0  0  0  0  0  0  0  0  0  0  0
   -1.5913    2.1701   -0.3412 H   0  0  0  0  0  0  0  0  0  0  0  0
    0.1210    0.9237   -1.8903 H   0  0  0  0  0  0  0  0  0  0  0  0
  1  2  2  0
  2  3  1  0
  3  4  1  0
  4  5  1  0
  5  6  1  0
  6  7  1  0
  7  8  2  0
  8  9  1  0
  9  2  1  0
  9  5  1  0
  3 10  1  0
  3 11  1  0
  5 12  1  0
  6 13  1  0
  6 14  1  0
  7 15  1  0
  8 16  1  0
  9 17  1  0
M  END
