
     RDKit          3D

 12 14  0  0  0  0  0  0  0  0999 V2000
    2.7962    0.0187    0.3557 O   0  0  0  0  0  0  0  0  0  0  0  0
    1.5583    0.2007    0.2358 C   0  0  0  0  0  0  0  0  0  0  0  0
    0.8301    1.3750    0.2463 O   0  0  0  0  0  0  0  0  0  0  0  0
   -0.5099    1.1270   -0.1390 C   0  0  0  0  0  0  0  0  0  0  0  0
   -1.1336   -0.0419    0.5765 C   0  0  0  0  0  0  0  0  0  0  0  0
   -0.3027   -1.0103    1.1226 O   0  0  0  0  0  0  0  0  0  0  0  0
    0.5753   -0.9187    0.0445 C   0  0  0  0  0  0  0  0  0  0  0  0
   -0.4948   -0.2083   -0.7171 C   0  0  0  0  0  0  0  0  0  0  0  0
   -1.1497    1.9382   -0.4534 H   0  0  0  0  0  0  0  0  0  0  0  0
   -2.2221   -0.0989    0.7162 H   0  0  0  0  0  0  0  0  0  0  0  0
    0.9763   -1.8412   -0.3541 H   0  0  0  0  0  0  0  0  0  0  0  0
   -0.9234   -0.5404   -1.6339 H   0  0  0  0  0  0  0  0  0  0  0  0
  1  2  2  0
  2  3  1  0
  3  4  1  0
  4  5  1  0
  5  6  1  0
  6  7  1  0
  7  8  1  0
  7  2  1  0
  8  4  1  0
  8  5  1  0
  4  9  1  0
  5 10  1  0
  7 11  1  0
  8 12  1  0
M  END
