
     RDKit          3D

 12 12  0  0  0  0  0  0  0  0999 V2000
   -0.1835    2.4224   -0.5028 O   0  0  0  0  0  0  0  0  0  0  0  0
    0.0530    1.2146   -0.2404 C   0  0  0  0  0  0  0  0  0  0  0  0
    1.2852    0.5752    0.1923 C   0  0  0  0  0  0  0  0  0  0  0  0
    1.1583   -0.7379    0.0969 C   0  0  0  0  0  0  0  0  0  0  0  0
   -0.1614   -1.0949   -0.4048 C   0  0  0  0  0  0  0  0  0  0  0  0
   -0.4693   -2.2458   -0.7987 O   0  0  0  0  0  0  0  0  0  0  0  0
   -0.9853    0.1442   -0.3390 C   0  0  0  0  0  0  0  0  0  0  0  0
   -1.8168    0.1474    0.7762 O   0  0  0  0  0  0  0  0  0  0  0  0
    2.1701    1.0936    0.5389 H   0  0  0  0  0  0  0  0  0  0  0  0
    1.9371   -1.4406    0.3594 H   0  0  0  0  0  0  0  0  0  0  0  0
   -1.6061    0.2648   -1.2228 H   0  0  0  0  0  0  0  0  0  0  0  0
   -1.3815   -0.3430    1.5448 H   0  0  0  0  0  0  0  0  0  0  0  0
  1  2  2  0
  2  3  1  0
  3  4  2  0
  4  5  1  0
  5  6  2  0
  5  7  1  0
  7  8  1  0
  7  2  1  0
  3  9  1  0
  4 10  1  0
  7 11  1  0
  8 12  1  0
M  END
