
     RDKit          3D

 13 14  0  0  0  0  0  0  0  0999 V2000
   -2.5038    0.1610   -1.1058 O   0  0  0  0  0  0  0  0  0  0  0  0
   -1.4686    0.1695   -0.4795 C   0  0  0  0  0  0  0  0  0  0  0  0
   -0.9600    0.5242    0.8534 C   0  0  0  0  0  0  0  0  0  0  0  0
   -0.1019   -0.6926    0.4496 C   0  0  0  0  0  0  0  0  0  0  0  0
    1.1230   -0.4758   -0.1102 C   0  0  0  0  0  0  0  0  0  0  0  0
    1.9232    0.5882    0.3384 O   0  0  0  0  0  0  0  0  0  0  0  0
   -0.1101   -0.2555   -0.9289 C   0  0  0  0  0  0  0  0  0  0  0  0
   -0.4030    1.4805    0.8137 H   0  0  0  0  0  0  0  0  0  0  0  0
   -1.6022    0.3498    1.7133 H   0  0  0  0  0  0  0  0  0  0  0  0
   -0.6629   -1.6368    0.6430 H   0  0  0  0  0  0  0  0  0  0  0  0
    1.7593   -1.3043   -0.5220 H   0  0  0  0  0  0  0  0  0  0  0  0
    2.8228    0.5804   -0.0691 H   0  0  0  0  0  0  0  0  0  0  0  0
    0.1842    0.5116   -1.5959 H   0  0  0  0  0  0  0  0  0  0  0  0
  1  2  2  0
  2  3  1  0
  3  4  1  0
  4  5  1  0
  5  6  1  0
  5  7  1  0
  7  2  1  0
  7  4  1  0
  3  8  1  0
  3  9  1  0
  4 10  1  0
  5 11  1  0
  6 12  1  0
  7 13  1  0
M  END
