
     RDKit          3D

 15 15  0  0  0  0  0  0  0  0999 V2000
    2.8348    0.6385   -0.4867 O   0  0  0  0  0  0  0  0  0  0  0  0
    1.6877    0.3312   -0.1481 C   0  0  0  0  0  0  0  0  0  0  0  0
    0.7697    1.4273    0.2397 C   0  0  0  0  0  0  0  0  0  0  0  0
   -0.5428    1.4418    0.1830 C   0  0  0  0  0  0  0  0  0  0  0  0
   -1.4516    0.3791   -0.2802 C   0  0  0  0  0  0  0  0  0  0  0  0
   -1.1269   -0.9868    0.1441 C   0  0  0  0  0  0  0  0  0  0  0  0
    0.0079   -1.6581    0.2178 C   0  0  0  0  0  0  0  0  0  0  0  0
    1.3278   -1.0927   -0.1572 C   0  0  0  0  0  0  0  0  0  0  0  0
    2.2059   -1.8969   -0.5099 O   0  0  0  0  0  0  0  0  0  0  0  0
    1.2604    2.3332    0.6147 H   0  0  0  0  0  0  0  0  0  0  0  0
   -1.0358    2.3781    0.5296 H   0  0  0  0  0  0  0  0  0  0  0  0
   -1.4740    0.3559   -1.4132 H   0  0  0  0  0  0  0  0  0  0  0  0
   -2.4926    0.6271    0.0327 H   0  0  0  0  0  0  0  0  0  0  0  0
   -1.9756   -1.5917    0.4689 H   0  0  0  0  0  0  0  0  0  0  0  0
    0.0050   -2.6861    0.5649 H   0  0  0  0  0  0  0  0  0  0  0  0
  1  2  2  0
  2  3  1  0
  3  4  2  0
  4  5  1  0
  5  6  1  0
  6  7  2  0
  7  8  1  0
  8  9  2  0
  8  2  1  0
  3 10  1  0
  4 11  1  0
  5 12  1  0
  5 13  1  0
  6 14  1  0
  7 15  1  0
M  END
