
     RDKit          3D

 14 15  0  0  0  0  0  0  0  0999 V2000
    2.5648   -1.5271   -0.5110 O   0  0  0  0  0  0  0  0  0  0  0  0
    1.4167   -1.1572   -0.1679 C   0  0  0  0  0  0  0  0  0  0  0  0
    1.0761    0.1283    0.4411 C   0  0  0  0  0  0  0  0  0  0  0  0
   -0.3211    0.3390   -0.1276 C   0  0  0  0  0  0  0  0  0  0  0  0
   -0.8760   -1.0318    0.0747 C   0  0  0  0  0  0  0  0  0  0  0  0
    0.2315   -1.8661   -0.2842 O   0  0  0  0  0  0  0  0  0  0  0  0
   -0.9584    1.5448   -0.2642 C   0  0  0  0  0  0  0  0  0  0  0  0
   -0.4595    0.8778   -1.3905 O   0  0  0  0  0  0  0  0  0  0  0  0
    0.9653   -0.0354    1.5399 H   0  0  0  0  0  0  0  0  0  0  0  0
    1.7543    0.9517    0.2185 H   0  0  0  0  0  0  0  0  0  0  0  0
   -1.0878   -1.1243    1.1764 H   0  0  0  0  0  0  0  0  0  0  0  0
   -1.7714   -1.2554   -0.5023 H   0  0  0  0  0  0  0  0  0  0  0  0
   -2.0773    1.6510   -0.1951 H   0  0  0  0  0  0  0  0  0  0  0  0
   -0.4574    2.5048   -0.0078 H   0  0  0  0  0  0  0  0  0  0  0  0
  1  2  2  0
  2  3  1  0
  3  4  1  0
  4  5  1  0
  5  6  1  0
  4  7  1  0
  7  8  1  0
  6  2  1  0
  8  4  1  0
  3  9  1  0
  3 10  1  0
  5 11  1  0
  5 12  1  0
  7 13  1  0
  7 14  1  0
M  END
