
     RDKit          3D

 12 14  0  0  0  0  0  0  0  0999 V2000
    0.2627    1.8354    1.4793 O   0  0  0  0  0  0  0  0  0  0  0  0
    0.2719    1.0476    0.5793 C   0  0  0  0  0  0  0  0  0  0  0  0
   -0.9642    0.6221   -0.1489 C   0  0  0  0  0  0  0  0  0  0  0  0
   -0.7859    0.1824   -1.4797 O   0  0  0  0  0  0  0  0  0  0  0  0
   -0.6441   -0.7925   -0.5428 C   0  0  0  0  0  0  0  0  0  0  0  0
    0.5755   -1.0738    0.2473 C   0  0  0  0  0  0  0  0  0  0  0  0
    1.8525   -0.8980    0.0668 O   0  0  0  0  0  0  0  0  0  0  0  0
    1.2997    0.2673   -0.1135 C   0  0  0  0  0  0  0  0  0  0  0  0
   -1.9359    0.9705    0.1148 H   0  0  0  0  0  0  0  0  0  0  0  0
   -1.5018   -1.4928   -0.3256 H   0  0  0  0  0  0  0  0  0  0  0  0
    0.3160   -1.1964    1.3458 H   0  0  0  0  0  0  0  0  0  0  0  0
    1.2536    0.5284   -1.2227 H   0  0  0  0  0  0  0  0  0  0  0  0
  1  2  2  0
  2  3  1  0
  3  4  1  0
  4  5  1  0
  5  6  1  0
  6  7  1  0
  7  8  1  0
  8  2  1  0
  5  3  1  0
  8  6  1  0
  3  9  1  0
  5 10  1  0
  6 11  1  0
  8 12  1  0
M  END
