
     RDKit          3D

 15 16  0  0  0  0  0  0  0  0999 V2000
   -2.0795   -1.7179   -1.5752 O   0  0  0  0  0  0  0  0  0  0  0  0
   -1.8075   -0.8733   -0.7322 C   0  0  0  0  0  0  0  0  0  0  0  0
   -2.2791    0.4268   -0.4359 O   0  0  0  0  0  0  0  0  0  0  0  0
   -0.8680    0.6947   -0.4894 C   0  0  0  0  0  0  0  0  0  0  0  0
   -0.9248   -0.5794    0.4473 C   0  0  0  0  0  0  0  0  0  0  0  0
    0.1144    0.4184    0.4918 C   0  0  0  0  0  0  0  0  0  0  0  0
    0.2227    1.3218    1.5808 O   0  0  0  0  0  0  0  0  0  0  0  0
    1.5119   -0.0627    0.0715 C   0  0  0  0  0  0  0  0  0  0  0  0
    1.4249   -0.9507   -0.9969 O   0  0  0  0  0  0  0  0  0  0  0  0
   -0.5542    0.4532   -1.5548 H   0  0  0  0  0  0  0  0  0  0  0  0
   -1.6431   -0.4856    1.3228 H   0  0  0  0  0  0  0  0  0  0  0  0
    0.4324    2.2284    1.2521 H   0  0  0  0  0  0  0  0  0  0  0  0
    1.9518   -0.5756    0.9432 H   0  0  0  0  0  0  0  0  0  0  0  0
    2.1505    0.7634   -0.2459 H   0  0  0  0  0  0  0  0  0  0  0  0
    2.3477   -1.0615   -1.3403 H   0  0  0  0  0  0  0  0  0  0  0  0
  1  2  2  0
  2  3  1  0
  3  4  1  0
  4  5  1  0
  5  6  1  0
  6  7  1  0
  6  8  1  0
  8  9  1  0
  5  2  1  0
  6  4  1  0
  4 10  1  0
  5 11  1  0
  7 12  1  0
  8 13  1  0
  8 14  1  0
  9 15  1  0
M  END
