
     RDKit          3D

 15 16  0  0  0  0  0  0  0  0999 V2000
    2.9841   -1.0522    0.7689 O   0  0  0  0  0  0  0  0  0  0  0  0
    1.8773   -0.6691    0.3115 C   0  0  0  0  0  0  0  0  0  0  0  0
    0.7555   -1.4917    0.2970 O   0  0  0  0  0  0  0  0  0  0  0  0
   -0.3025   -0.9243   -0.4121 C   0  0  0  0  0  0  0  0  0  0  0  0
   -1.4748   -0.4399    0.3845 C   0  0  0  0  0  0  0  0  0  0  0  0
   -0.9134    0.9548    0.3646 C   0  0  0  0  0  0  0  0  0  0  0  0
    0.0806    0.5082   -0.6819 C   0  0  0  0  0  0  0  0  0  0  0  0
    1.4978    0.6068   -0.2698 C   0  0  0  0  0  0  0  0  0  0  0  0
    2.2291    1.6043   -0.3993 O   0  0  0  0  0  0  0  0  0  0  0  0
   -0.5926   -1.5044   -1.3291 H   0  0  0  0  0  0  0  0  0  0  0  0
   -2.4134   -0.5980   -0.1585 H   0  0  0  0  0  0  0  0  0  0  0  0
   -1.5452   -0.8075    1.4226 H   0  0  0  0  0  0  0  0  0  0  0  0
   -0.3637    1.2176    1.3053 H   0  0  0  0  0  0  0  0  0  0  0  0
   -1.6467    1.6950    0.0667 H   0  0  0  0  0  0  0  0  0  0  0  0
   -0.1722    0.9003   -1.6705 H   0  0  0  0  0  0  0  0  0  0  0  0
  1  2  2  0
  2  3  1  0
  3  4  1  0
  4  5  1  0
  5  6  1  0
  6  7  1  0
  7  8  1  0
  8  9  2  0
  8  2  1  0
  7  4  1  0
  4 10  1  0
  5 11  1  0
  5 12  1  0
  6 13  1  0
  6 14  1  0
  7 15  1  0
M  END
