
     RDKit          3D

 16 16  0  0  0  0  0  0  0  0999 V2000
   -1.7017   -2.0855   -0.9102 O   0  0  0  0  0  0  0  0  0  0  0  0
   -1.6015   -0.9769   -0.4955 C   0  0  0  0  0  0  0  0  0  0  0  0
   -2.4112    0.0848    0.1187 C   0  0  0  0  0  0  0  0  0  0  0  0
   -1.2451    0.4448    0.8362 O   0  0  0  0  0  0  0  0  0  0  0  0
   -0.5599    0.0486   -0.3394 C   0  0  0  0  0  0  0  0  0  0  0  0
    0.8365   -0.4333   -0.1011 C   0  0  0  0  0  0  0  0  0  0  0  0
    1.7391    0.7747    0.0288 C   0  0  0  0  0  0  0  0  0  0  0  0
    3.0593    0.4037    0.2527 O   0  0  0  0  0  0  0  0  0  0  0  0
   -2.6023    0.9028   -0.6227 H   0  0  0  0  0  0  0  0  0  0  0  0
   -3.2612   -0.2065    0.7342 H   0  0  0  0  0  0  0  0  0  0  0  0
   -0.6495    0.8754   -1.0624 H   0  0  0  0  0  0  0  0  0  0  0  0
    0.9557   -1.0290    0.8032 H   0  0  0  0  0  0  0  0  0  0  0  0
    1.1689   -1.0005   -0.9951 H   0  0  0  0  0  0  0  0  0  0  0  0
    1.3956    1.3301    0.9392 H   0  0  0  0  0  0  0  0  0  0  0  0
    1.6834    1.4353   -0.8453 H   0  0  0  0  0  0  0  0  0  0  0  0
    3.1939   -0.5688    0.0665 H   0  0  0  0  0  0  0  0  0  0  0  0
  1  2  2  0
  2  3  1  0
  3  4  1  0
  4  5  1  0
  5  6  1  0
  6  7  1  0
  7  8  1  0
  5  2  1  0
  3  9  1  0
  3 10  1  0
  5 11  1  0
  6 12  1  0
  6 13  1  0
  7 14  1  0
  7 15  1  0
  8 16  1  0
M  END
