
     RDKit          3D

 17 18  0  0  0  0  0  0  0  0999 V2000
    1.6579   -2.0758   -1.0271 O   0  0  0  0  0  0  0  0  0  0  0  0
    1.0221   -1.0996   -0.7147 C   0  0  0  0  0  0  0  0  0  0  0  0
    1.5844    0.2535   -0.5255 C   0  0  0  0  0  0  0  0  0  0  0  0
    0.6330    0.9531    0.4084 C   0  0  0  0  0  0  0  0  0  0  0  0
   -0.6687    1.4598   -0.0044 C   0  0  0  0  0  0  0  0  0  0  0  0
   -0.5863    0.1008    0.5471 C   0  0  0  0  0  0  0  0  0  0  0  0
   -1.0417   -0.2447    1.7959 O   0  0  0  0  0  0  0  0  0  0  0  0
   -0.4150   -1.0143   -0.4542 C   0  0  0  0  0  0  0  0  0  0  0  0
   -0.9771   -2.2162   -0.0132 O   0  0  0  0  0  0  0  0  0  0  0  0
    2.5926    0.1901   -0.0826 H   0  0  0  0  0  0  0  0  0  0  0  0
    1.6131    0.8399   -1.4747 H   0  0  0  0  0  0  0  0  0  0  0  0
    1.0688    1.3083    1.3494 H   0  0  0  0  0  0  0  0  0  0  0  0
   -1.0836    2.3121    0.6006 H   0  0  0  0  0  0  0  0  0  0  0  0
   -0.9878    1.5457   -1.0727 H   0  0  0  0  0  0  0  0  0  0  0  0
   -1.5340    0.4741    2.2303 H   0  0  0  0  0  0  0  0  0  0  0  0
   -0.9082   -0.6884   -1.4133 H   0  0  0  0  0  0  0  0  0  0  0  0
   -1.9696   -2.0986   -0.1493 H   0  0  0  0  0  0  0  0  0  0  0  0
  1  2  2  0
  2  3  1  0
  3  4  1  0
  4  5  1  0
  5  6  1  0
  6  7  1  0
  6  8  1  0
  8  9  1  0
  8  2  1  0
  6  4  1  0
  3 10  1  0
  3 11  1  0
  4 12  1  0
  5 13  1  0
  5 14  1  0
  7 15  1  0
  8 16  1  0
  9 17  1  0
M  END
