
     RDKit          3D

 17 18  0  0  0  0  0  0  0  0999 V2000
    0.1128    2.6035   -0.7490 O   0  0  0  0  0  0  0  0  0  0  0  0
   -0.2436    1.4188   -0.5739 C   0  0  0  0  0  0  0  0  0  0  0  0
   -0.5436    0.5302   -1.6088 O   0  0  0  0  0  0  0  0  0  0  0  0
   -0.7154   -0.7631   -1.0612 C   0  0  0  0  0  0  0  0  0  0  0  0
   -1.3900   -0.4135    0.2715 C   0  0  0  0  0  0  0  0  0  0  0  0
   -0.4281    0.6948    0.7254 C   0  0  0  0  0  0  0  0  0  0  0  0
    0.8665    0.0073    1.0557 C   0  0  0  0  0  0  0  0  0  0  0  0
    1.4362   -0.4991   -0.2691 C   0  0  0  0  0  0  0  0  0  0  0  0
    0.5264   -1.3475   -0.8582 O   0  0  0  0  0  0  0  0  0  0  0  0
   -1.3427   -1.4130   -1.6651 H   0  0  0  0  0  0  0  0  0  0  0  0
   -2.3399    0.0517    0.0209 H   0  0  0  0  0  0  0  0  0  0  0  0
   -1.4175   -1.2502    0.9605 H   0  0  0  0  0  0  0  0  0  0  0  0
   -0.8389    1.3125    1.5110 H   0  0  0  0  0  0  0  0  0  0  0  0
    0.6911   -0.9293    1.6631 H   0  0  0  0  0  0  0  0  0  0  0  0
    1.5880    0.6337    1.5716 H   0  0  0  0  0  0  0  0  0  0  0  0
    2.3795   -1.0464   -0.1253 H   0  0  0  0  0  0  0  0  0  0  0  0
    1.6593    0.4098   -0.8690 H   0  0  0  0  0  0  0  0  0  0  0  0
  1  2  2  0
  2  3  1  0
  3  4  1  0
  4  5  1  0
  5  6  1  0
  6  7  1  0
  7  8  1  0
  8  9  1  0
  6  2  1  0
  9  4  1  0
  4 10  1  0
  5 11  1  0
  5 12  1  0
  6 13  1  0
  7 14  1  0
  7 15  1  0
  8 16  1  0
  8 17  1  0
M  END
