
     RDKit          3D

 17 18  0  0  0  0  0  0  0  0999 V2000
    0.1043    1.8880    1.1203 O   0  0  0  0  0  0  0  0  0  0  0  0
   -0.3594    1.0176    0.4744 C   0  0  0  0  0  0  0  0  0  0  0  0
   -1.7651    0.6963    0.1262 C   0  0  0  0  0  0  0  0  0  0  0  0
   -1.4458   -0.6530   -0.5337 C   0  0  0  0  0  0  0  0  0  0  0  0
   -0.3665   -1.2808    0.3296 C   0  0  0  0  0  0  0  0  0  0  0  0
    0.3459   -0.0771   -0.2234 C   0  0  0  0  0  0  0  0  0  0  0  0
    1.7859   -0.0610   -0.3488 C   0  0  0  0  0  0  0  0  0  0  0  0
    2.1575    0.9688   -1.2455 O   0  0  0  0  0  0  0  0  0  0  0  0
   -0.4152   -0.3025   -1.3971 O   0  0  0  0  0  0  0  0  0  0  0  0
   -2.4171    0.5694    0.9980 H   0  0  0  0  0  0  0  0  0  0  0  0
   -2.1690    1.3732   -0.6450 H   0  0  0  0  0  0  0  0  0  0  0  0
   -2.2536   -1.2478   -0.8730 H   0  0  0  0  0  0  0  0  0  0  0  0
   -0.0945   -2.2526   -0.0658 H   0  0  0  0  0  0  0  0  0  0  0  0
   -0.5335   -1.1666    1.4038 H   0  0  0  0  0  0  0  0  0  0  0  0
    2.1565   -1.0157   -0.7792 H   0  0  0  0  0  0  0  0  0  0  0  0
    2.3447    0.0943    0.5946 H   0  0  0  0  0  0  0  0  0  0  0  0
    2.9248    1.4496   -0.8943 H   0  0  0  0  0  0  0  0  0  0  0  0
  1  2  2  0
  2  3  1  0
  3  4  1  0
  4  5  1  0
  5  6  1  0
  6  7  1  0
  7  8  1  0
  6  9  1  0
  6  2  1  0
  9  4  1  0
  3 10  1  0
  3 11  1  0
  4 12  1  0
  5 13  1  0
  5 14  1  0
  7 15  1  0
  7 16  1  0
  8 17  1  0
M  END
