
     RDKit          3D

 17 18  0  0  0  0  0  0  0  0999 V2000
   -1.6521    2.5789    0.0258 O   0  0  0  0  0  0  0  0  0  0  0  0
   -1.3143    1.3938   -0.0610 C   0  0  0  0  0  0  0  0  0  0  0  0
   -1.9971    0.3308    0.4730 O   0  0  0  0  0  0  0  0  0  0  0  0
   -1.3480   -0.8956    0.2331 C   0  0  0  0  0  0  0  0  0  0  0  0
   -0.1317   -0.6148   -0.5854 C   0  0  0  0  0  0  0  0  0  0  0  0
    1.1736   -0.5407    0.1296 C   0  0  0  0  0  0  0  0  0  0  0  0
    1.2381   -1.1786    1.3667 O   0  0  0  0  0  0  0  0  0  0  0  0
    1.0808    0.9526    0.1757 C   0  0  0  0  0  0  0  0  0  0  0  0
   -0.1157    0.8881   -0.7528 C   0  0  0  0  0  0  0  0  0  0  0  0
   -2.0503   -1.5072   -0.3923 H   0  0  0  0  0  0  0  0  0  0  0  0
   -1.1405   -1.4164    1.1918 H   0  0  0  0  0  0  0  0  0  0  0  0
   -0.1036   -1.1465   -1.5641 H   0  0  0  0  0  0  0  0  0  0  0  0
    2.0402   -0.8373   -0.5292 H   0  0  0  0  0  0  0  0  0  0  0  0
    1.4788   -2.1239    1.1785 H   0  0  0  0  0  0  0  0  0  0  0  0
    1.9166    1.5019   -0.3041 H   0  0  0  0  0  0  0  0  0  0  0  0
    0.8645    1.3636    1.1875 H   0  0  0  0  0  0  0  0  0  0  0  0
    0.0608    1.2512   -1.7728 H   0  0  0  0  0  0  0  0  0  0  0  0
  1  2  2  0
  2  3  1  0
  3  4  1  0
  4  5  1  0
  5  6  1  0
  6  7  1  0
  6  8  1  0
  8  9  1  0
  9  2  1  0
  9  5  1  0
  4 10  1  0
  4 11  1  0
  5 12  1  0
  6 13  1  0
  7 14  1  0
  8 15  1  0
  8 16  1  0
  9 17  1  0
M  END
