
     RDKit          3D

 19 20  0  0  0  0  0  0  0  0999 V2000
   -2.4407   -0.4014   -1.9659 O   0  0  0  0  0  0  0  0  0  0  0  0
   -1.5846   -0.2677   -1.1240 C   0  0  0  0  0  0  0  0  0  0  0  0
   -0.3563    0.6217   -1.2151 C   0  0  0  0  0  0  0  0  0  0  0  0
    0.2550    0.2508    0.1196 C   0  0  0  0  0  0  0  0  0  0  0  0
    1.5306    0.7964    0.5039 C   0  0  0  0  0  0  0  0  0  0  0  0
    2.5157    0.4144   -0.4361 O   0  0  0  0  0  0  0  0  0  0  0  0
   -0.9305    0.3217    1.0315 C   0  0  0  0  0  0  0  0  0  0  0  0
   -1.4284   -0.8673    0.1918 C   0  0  0  0  0  0  0  0  0  0  0  0
    0.0572   -1.2639    0.1756 C   0  0  0  0  0  0  0  0  0  0  0  0
    0.2624    0.3694   -2.0709 H   0  0  0  0  0  0  0  0  0  0  0  0
   -0.6592    1.6805   -1.1425 H   0  0  0  0  0  0  0  0  0  0  0  0
    1.4964    1.9055    0.4407 H   0  0  0  0  0  0  0  0  0  0  0  0
    1.8260    0.5153    1.5131 H   0  0  0  0  0  0  0  0  0  0  0  0
    3.1565   -0.2309   -0.0390 H   0  0  0  0  0  0  0  0  0  0  0  0
   -1.5723    1.2153    0.9451 H   0  0  0  0  0  0  0  0  0  0  0  0
   -0.7755   -0.0551    2.0685 H   0  0  0  0  0  0  0  0  0  0  0  0
   -2.1187   -1.5293    0.6227 H   0  0  0  0  0  0  0  0  0  0  0  0
    0.3650   -1.7823   -0.7450 H   0  0  0  0  0  0  0  0  0  0  0  0
    0.4013   -1.6932    1.1261 H   0  0  0  0  0  0  0  0  0  0  0  0
  1  2  2  0
  2  3  1  0
  3  4  1  0
  4  5  1  0
  5  6  1  0
  4  7  1  0
  7  8  1  0
  8  9  1  0
  8  2  1  0
  9  4  1  0
  3 10  1  0
  3 11  1  0
  5 12  1  0
  5 13  1  0
  6 14  1  0
  7 15  1  0
  7 16  1  0
  8 17  1  0
  9 18  1  0
  9 19  1  0
M  END
