
     RDKit          3D

 21 21  0  0  0  0  0  0  0  0999 V2000
    3.5045    0.7163   -0.4497 O   0  0  0  0  0  0  0  0  0  0  0  0
    2.4281    0.3252   -0.0491 C   0  0  0  0  0  0  0  0  0  0  0  0
    1.9986   -1.0897    0.1084 C   0  0  0  0  0  0  0  0  0  0  0  0
    0.5501   -0.9930   -0.3771 C   0  0  0  0  0  0  0  0  0  0  0  0
    0.0918    0.2133    0.4164 C   0  0  0  0  0  0  0  0  0  0  0  0
   -1.1526    0.8035   -0.2043 C   0  0  0  0  0  0  0  0  0  0  0  0
   -2.2080   -0.2918   -0.1739 C   0  0  0  0  0  0  0  0  0  0  0  0
   -3.4040    0.1590   -0.7299 O   0  0  0  0  0  0  0  0  0  0  0  0
    1.2555    1.1492    0.3897 C   0  0  0  0  0  0  0  0  0  0  0  0
    2.5813   -1.7934   -0.5009 H   0  0  0  0  0  0  0  0  0  0  0  0
    1.9276   -1.3911    1.1788 H   0  0  0  0  0  0  0  0  0  0  0  0
    0.5052   -0.8274   -1.4634 H   0  0  0  0  0  0  0  0  0  0  0  0
   -0.0455   -1.8548   -0.0244 H   0  0  0  0  0  0  0  0  0  0  0  0
   -0.0826   -0.1044    1.4538 H   0  0  0  0  0  0  0  0  0  0  0  0
   -1.4859    1.7028    0.3288 H   0  0  0  0  0  0  0  0  0  0  0  0
   -0.9549    1.1012   -1.2531 H   0  0  0  0  0  0  0  0  0  0  0  0
   -2.3282   -0.6153    0.8866 H   0  0  0  0  0  0  0  0  0  0  0  0
   -1.8067   -1.1460   -0.7715 H   0  0  0  0  0  0  0  0  0  0  0  0
   -4.0014    0.3812    0.0500 H   0  0  0  0  0  0  0  0  0  0  0  0
    1.5128    1.5191    1.4213 H   0  0  0  0  0  0  0  0  0  0  0  0
    1.1142    2.0360   -0.2365 H   0  0  0  0  0  0  0  0  0  0  0  0
  1  2  2  0
  2  3  1  0
  3  4  1  0
  4  5  1  0
  5  6  1  0
  6  7  1  0
  7  8  1  0
  5  9  1  0
  9  2  1  0
  3 10  1  0
  3 11  1  0
  4 12  1  0
  4 13  1  0
  5 14  1  0
  6 15  1  0
  6 16  1  0
  7 17  1  0
  7 18  1  0
  8 19  1  0
  9 20  1  0
  9 21  1  0
M  END
