
     RDKit          3D

 17 18  0  0  0  0  0  0  0  0999 V2000
   -0.1707   -0.0853   -2.6775 O   0  0  0  0  0  0  0  0  0  0  0  0
   -0.2257    0.0270   -1.4961 C   0  0  0  0  0  0  0  0  0  0  0  0
   -1.4105   -0.0278   -0.5999 C   0  0  0  0  0  0  0  0  0  0  0  0
   -0.6645   -0.0256    0.7185 C   0  0  0  0  0  0  0  0  0  0  0  0
   -1.3052   -0.1565    1.8655 O   0  0  0  0  0  0  0  0  0  0  0  0
    0.5933   -0.8691    0.4611 C   0  0  0  0  0  0  0  0  0  0  0  0
    0.8788    0.2576   -0.5500 C   0  0  0  0  0  0  0  0  0  0  0  0
    2.1208    0.4401   -0.9549 O   0  0  0  0  0  0  0  0  0  0  0  0
    0.2830    1.1614    0.5161 C   0  0  0  0  0  0  0  0  0  0  0  0
   -1.9929    0.9369   -0.6175 H   0  0  0  0  0  0  0  0  0  0  0  0
   -2.0375   -0.9083   -0.7474 H   0  0  0  0  0  0  0  0  0  0  0  0
   -1.2336   -1.0247    2.3338 H   0  0  0  0  0  0  0  0  0  0  0  0
    1.2721   -0.8390    1.3123 H   0  0  0  0  0  0  0  0  0  0  0  0
    0.4063   -1.8340   -0.0163 H   0  0  0  0  0  0  0  0  0  0  0  0
    2.7046   -0.3492   -1.0756 H   0  0  0  0  0  0  0  0  0  0  0  0
   -0.1887    2.0752    0.1608 H   0  0  0  0  0  0  0  0  0  0  0  0
    0.9706    1.2211    1.3671 H   0  0  0  0  0  0  0  0  0  0  0  0
  1  2  2  0
  2  3  1  0
  3  4  1  0
  4  5  1  0
  4  6  1  0
  6  7  1  0
  7  8  1  0
  7  9  1  0
  7  2  1  0
  9  4  1  0
  3 10  1  0
  3 11  1  0
  5 12  1  0
  6 13  1  0
  6 14  1  0
  8 15  1  0
  9 16  1  0
  9 17  1  0
M  END
