
     RDKit          3D

 17 18  0  0  0  0  0  0  0  0999 V2000
    1.1843    1.8036    1.5788 O   0  0  0  0  0  0  0  0  0  0  0  0
    0.7756    0.9002    0.8900 C   0  0  0  0  0  0  0  0  0  0  0  0
    0.4930    0.6080   -0.5560 C   0  0  0  0  0  0  0  0  0  0  0  0
   -0.9870    0.7563   -0.7501 C   0  0  0  0  0  0  0  0  0  0  0  0
   -1.6889   -0.3427    0.0022 C   0  0  0  0  0  0  0  0  0  0  0  0
   -1.0791   -0.5335    1.2157 O   0  0  0  0  0  0  0  0  0  0  0  0
    0.3036   -0.5065    1.1538 C   0  0  0  0  0  0  0  0  0  0  0  0
    0.8276   -0.8354   -0.2342 C   0  0  0  0  0  0  0  0  0  0  0  0
    2.2035   -1.0649   -0.1512 O   0  0  0  0  0  0  0  0  0  0  0  0
    1.1489    1.1001   -1.2731 H   0  0  0  0  0  0  0  0  0  0  0  0
   -1.2429    0.8208   -1.8045 H   0  0  0  0  0  0  0  0  0  0  0  0
   -1.2781    1.7183   -0.2364 H   0  0  0  0  0  0  0  0  0  0  0  0
   -2.7659   -0.1002    0.1992 H   0  0  0  0  0  0  0  0  0  0  0  0
   -1.7141   -1.3045   -0.5687 H   0  0  0  0  0  0  0  0  0  0  0  0
    0.8186   -1.0156    1.9806 H   0  0  0  0  0  0  0  0  0  0  0  0
    0.2931   -1.5974   -0.7868 H   0  0  0  0  0  0  0  0  0  0  0  0
    2.7077   -0.4066   -0.6592 H   0  0  0  0  0  0  0  0  0  0  0  0
  1  2  2  0
  2  3  1  0
  3  4  1  0
  4  5  1  0
  5  6  1  0
  6  7  1  0
  7  8  1  0
  8  9  1  0
  7  2  1  0
  8  3  1  0
  3 10  1  0
  4 11  1  0
  4 12  1  0
  5 13  1  0
  5 14  1  0
  7 15  1  0
  8 16  1  0
  9 17  1  0
M  END
