
     RDKit          3D

 17 19  0  0  0  0  0  0  0  0999 V2000
    0.7363   -1.7559   -2.0585 O   0  0  0  0  0  0  0  0  0  0  0  0
    0.1134   -0.9444   -1.3250 C   0  0  0  0  0  0  0  0  0  0  0  0
   -1.2082   -0.4831   -1.4988 O   0  0  0  0  0  0  0  0  0  0  0  0
   -1.8350   -0.4067   -0.2369 C   0  0  0  0  0  0  0  0  0  0  0  0
   -1.6698    0.7613    0.6459 C   0  0  0  0  0  0  0  0  0  0  0  0
   -0.6599   -0.3284    0.7794 C   0  0  0  0  0  0  0  0  0  0  0  0
    0.5476   -0.2443   -0.0987 C   0  0  0  0  0  0  0  0  0  0  0  0
    1.2982    1.0105   -0.3043 C   0  0  0  0  0  0  0  0  0  0  0  0
    1.9150   -0.2253    0.3824 C   0  0  0  0  0  0  0  0  0  0  0  0
   -2.5931   -1.1716   -0.0030 H   0  0  0  0  0  0  0  0  0  0  0  0
   -2.4274    0.8519    1.4602 H   0  0  0  0  0  0  0  0  0  0  0  0
   -1.2741    1.7173    0.2728 H   0  0  0  0  0  0  0  0  0  0  0  0
   -0.6806   -1.0493    1.6043 H   0  0  0  0  0  0  0  0  0  0  0  0
    1.1729    1.9071    0.2966 H   0  0  0  0  0  0  0  0  0  0  0  0
    1.7588    1.2075   -1.3104 H   0  0  0  0  0  0  0  0  0  0  0  0
    2.0530   -0.1201    1.4975 H   0  0  0  0  0  0  0  0  0  0  0  0
    2.7530   -0.7264   -0.1034 H   0  0  0  0  0  0  0  0  0  0  0  0
  1  2  2  0
  2  3  1  0
  3  4  1  0
  4  5  1  0
  5  6  1  0
  6  7  1  0
  7  8  1  0
  8  9  1  0
  7  2  1  0
  6  4  1  0
  9  7  1  0
  4 10  1  0
  5 11  1  0
  5 12  1  0
  6 13  1  0
  8 14  1  0
  8 15  1  0
  9 16  1  0
  9 17  1  0
M  END
