
     RDKit          3D

 17 18  0  0  0  0  0  0  0  0999 V2000
    2.8189   -0.5374    0.8503 O   0  0  0  0  0  0  0  0  0  0  0  0
    1.7452   -0.3219    0.2242 C   0  0  0  0  0  0  0  0  0  0  0  0
    1.4927    1.1056   -0.0410 C   0  0  0  0  0  0  0  0  0  0  0  0
    0.2841    1.5504    0.5195 O   0  0  0  0  0  0  0  0  0  0  0  0
   -0.5657    0.4992    0.7786 C   0  0  0  0  0  0  0  0  0  0  0  0
   -1.9445    0.4138    0.3141 C   0  0  0  0  0  0  0  0  0  0  0  0
   -0.9323   -0.1088   -0.5825 C   0  0  0  0  0  0  0  0  0  0  0  0
   -0.3990   -1.4954   -0.5647 C   0  0  0  0  0  0  0  0  0  0  0  0
    0.9671   -1.3991   -0.1238 O   0  0  0  0  0  0  0  0  0  0  0  0
    1.4642    1.2249   -1.1567 H   0  0  0  0  0  0  0  0  0  0  0  0
    2.3260    1.7509    0.3043 H   0  0  0  0  0  0  0  0  0  0  0  0
   -0.2601   -0.1688    1.5954 H   0  0  0  0  0  0  0  0  0  0  0  0
   -2.4325    1.3709    0.0222 H   0  0  0  0  0  0  0  0  0  0  0  0
   -2.6317   -0.2612    0.8608 H   0  0  0  0  0  0  0  0  0  0  0  0
   -0.6842    0.4686   -1.4957 H   0  0  0  0  0  0  0  0  0  0  0  0
   -0.3198   -1.9078   -1.6087 H   0  0  0  0  0  0  0  0  0  0  0  0
   -0.9283   -2.1839    0.1038 H   0  0  0  0  0  0  0  0  0  0  0  0
  1  2  2  0
  2  3  1  0
  3  4  1  0
  4  5  1  0
  5  6  1  0
  6  7  1  0
  7  8  1  0
  8  9  1  0
  9  2  1  0
  7  5  1  0
  3 10  1  0
  3 11  1  0
  5 12  1  0
  6 13  1  0
  6 14  1  0
  7 15  1  0
  8 16  1  0
  8 17  1  0
M  END
