
     RDKit          3D

 17 18  0  0  0  0  0  0  0  0999 V2000
   -1.8767   -1.9668    1.5157 O   0  0  0  0  0  0  0  0  0  0  0  0
   -1.2819   -1.1125    0.8948 C   0  0  0  0  0  0  0  0  0  0  0  0
   -1.2057   -0.8079   -0.5668 C   0  0  0  0  0  0  0  0  0  0  0  0
   -0.0879    0.1533   -0.2420 C   0  0  0  0  0  0  0  0  0  0  0  0
    1.2940   -0.2478   -0.6192 C   0  0  0  0  0  0  0  0  0  0  0  0
    1.4406   -0.4585   -1.9901 O   0  0  0  0  0  0  0  0  0  0  0  0
   -0.4285    1.3033    0.5766 C   0  0  0  0  0  0  0  0  0  0  0  0
    0.4685    2.2575    0.9854 O   0  0  0  0  0  0  0  0  0  0  0  0
   -0.3808   -0.0038    1.2684 C   0  0  0  0  0  0  0  0  0  0  0  0
   -2.1093   -0.2481   -0.9329 H   0  0  0  0  0  0  0  0  0  0  0  0
   -0.8934   -1.6216   -1.2141 H   0  0  0  0  0  0  0  0  0  0  0  0
    2.0461    0.4686   -0.2825 H   0  0  0  0  0  0  0  0  0  0  0  0
    1.4958   -1.2440   -0.1315 H   0  0  0  0  0  0  0  0  0  0  0  0
    2.2121   -1.0778   -2.0963 H   0  0  0  0  0  0  0  0  0  0  0  0
   -1.4729    1.7123    0.4432 H   0  0  0  0  0  0  0  0  0  0  0  0
    0.3144    3.0812    0.4532 H   0  0  0  0  0  0  0  0  0  0  0  0
    0.4657   -0.1874    1.9381 H   0  0  0  0  0  0  0  0  0  0  0  0
  1  2  2  0
  2  3  1  0
  3  4  1  0
  4  5  1  0
  5  6  1  0
  4  7  1  0
  7  8  1  0
  7  9  1  0
  9  2  1  0
  9  4  1  0
  3 10  1  0
  3 11  1  0
  5 12  1  0
  5 13  1  0
  6 14  1  0
  7 15  1  0
  8 16  1  0
  9 17  1  0
M  END
