
     RDKit          3D

 17 17  0  0  0  0  0  0  0  0999 V2000
    3.0130   -0.3201    0.5293 O   0  0  0  0  0  0  0  0  0  0  0  0
    1.8220   -0.1416    0.2011 C   0  0  0  0  0  0  0  0  0  0  0  0
    1.3029    1.2434    0.1875 C   0  0  0  0  0  0  0  0  0  0  0  0
    0.0898    1.6142   -0.1953 C   0  0  0  0  0  0  0  0  0  0  0  0
   -1.0673    0.8388   -0.6987 C   0  0  0  0  0  0  0  0  0  0  0  0
   -1.2744   -0.4390    0.0541 C   0  0  0  0  0  0  0  0  0  0  0  0
   -1.4127   -0.1709    1.4199 O   0  0  0  0  0  0  0  0  0  0  0  0
   -0.2549   -1.4708   -0.1983 C   0  0  0  0  0  0  0  0  0  0  0  0
    1.0667   -1.3551   -0.1385 C   0  0  0  0  0  0  0  0  0  0  0  0
    2.0051    1.9618    0.5234 H   0  0  0  0  0  0  0  0  0  0  0  0
   -0.0722    2.6783   -0.1221 H   0  0  0  0  0  0  0  0  0  0  0  0
   -1.9925    1.4463   -0.5728 H   0  0  0  0  0  0  0  0  0  0  0  0
   -0.9296    0.6157   -1.7797 H   0  0  0  0  0  0  0  0  0  0  0  0
   -2.2723   -0.8455   -0.2688 H   0  0  0  0  0  0  0  0  0  0  0  0
   -1.0335   -0.9350    1.8955 H   0  0  0  0  0  0  0  0  0  0  0  0
   -0.6220   -2.4734   -0.4733 H   0  0  0  0  0  0  0  0  0  0  0  0
    1.6320   -2.2469   -0.3632 H   0  0  0  0  0  0  0  0  0  0  0  0
  1  2  2  0
  2  3  1  0
  3  4  2  0
  4  5  1  0
  5  6  1  0
  6  7  1  0
  6  8  1  0
  8  9  2  0
  9  2  1  0
  3 10  1  0
  4 11  1  0
  5 12  1  0
  5 13  1  0
  6 14  1  0
  7 15  1  0
  8 16  1  0
  9 17  1  0
M  END
