
     RDKit          3D

 17 18  0  0  0  0  0  0  0  0999 V2000
    3.3033   -1.0844   -0.3075 O   0  0  0  0  0  0  0  0  0  0  0  0
    2.0951   -0.8100   -0.2107 C   0  0  0  0  0  0  0  0  0  0  0  0
    1.6610    0.1740    0.7953 C   0  0  0  0  0  0  0  0  0  0  0  0
    0.3542   -0.2083    1.1791 O   0  0  0  0  0  0  0  0  0  0  0  0
   -0.5124   -0.0183    0.1342 C   0  0  0  0  0  0  0  0  0  0  0  0
   -1.3612    1.1965    0.1886 C   0  0  0  0  0  0  0  0  0  0  0  0
   -1.9856   -0.1345    0.4444 C   0  0  0  0  0  0  0  0  0  0  0  0
   -0.0894   -0.6251   -1.1586 C   0  0  0  0  0  0  0  0  0  0  0  0
    1.1147   -1.3718   -0.9927 O   0  0  0  0  0  0  0  0  0  0  0  0
    2.3333    0.2217    1.6755 H   0  0  0  0  0  0  0  0  0  0  0  0
    1.5347    1.2002    0.3425 H   0  0  0  0  0  0  0  0  0  0  0  0
   -1.6643    1.7192   -0.7630 H   0  0  0  0  0  0  0  0  0  0  0  0
   -1.1978    1.9142    1.0195 H   0  0  0  0  0  0  0  0  0  0  0  0
   -2.2545   -0.4373    1.4762 H   0  0  0  0  0  0  0  0  0  0  0  0
   -2.6445   -0.5357   -0.3253 H   0  0  0  0  0  0  0  0  0  0  0  0
    0.1563    0.1541   -1.9306 H   0  0  0  0  0  0  0  0  0  0  0  0
   -0.8428   -1.3547   -1.5670 H   0  0  0  0  0  0  0  0  0  0  0  0
  1  2  2  0
  2  3  1  0
  3  4  1  0
  4  5  1  0
  5  6  1  0
  6  7  1  0
  5  8  1  0
  8  9  1  0
  9  2  1  0
  7  5  1  0
  3 10  1  0
  3 11  1  0
  6 12  1  0
  6 13  1  0
  7 14  1  0
  7 15  1  0
  8 16  1  0
  8 17  1  0
M  END
