
     RDKit          3D

 17 18  0  0  0  0  0  0  0  0999 V2000
   -1.9334    0.2927    1.9372 O   0  0  0  0  0  0  0  0  0  0  0  0
   -1.2990    0.5966    0.8888 C   0  0  0  0  0  0  0  0  0  0  0  0
   -0.4336    1.6975    0.7614 O   0  0  0  0  0  0  0  0  0  0  0  0
    0.3173    1.3913   -0.4153 C   0  0  0  0  0  0  0  0  0  0  0  0
    1.3892    0.3778   -0.1090 C   0  0  0  0  0  0  0  0  0  0  0  0
    0.7681   -0.8651    0.5354 C   0  0  0  0  0  0  0  0  0  0  0  0
   -0.3531   -1.2796   -0.4253 C   0  0  0  0  0  0  0  0  0  0  0  0
   -1.2964   -0.0968   -0.4348 C   0  0  0  0  0  0  0  0  0  0  0  0
   -0.6856    0.8828   -1.2385 O   0  0  0  0  0  0  0  0  0  0  0  0
    0.7890    2.2782   -0.8545 H   0  0  0  0  0  0  0  0  0  0  0  0
    1.8490    0.0715   -1.0492 H   0  0  0  0  0  0  0  0  0  0  0  0
    2.0809    0.8411    0.6146 H   0  0  0  0  0  0  0  0  0  0  0  0
    1.5207   -1.6482    0.6517 H   0  0  0  0  0  0  0  0  0  0  0  0
    0.2655   -0.6218    1.4884 H   0  0  0  0  0  0  0  0  0  0  0  0
   -0.8147   -2.2199   -0.1544 H   0  0  0  0  0  0  0  0  0  0  0  0
    0.1455   -1.3500   -1.4256 H   0  0  0  0  0  0  0  0  0  0  0  0
   -2.3094   -0.3482   -0.7708 H   0  0  0  0  0  0  0  0  0  0  0  0
  1  2  2  0
  2  3  1  0
  3  4  1  0
  4  5  1  0
  5  6  1  0
  6  7  1  0
  7  8  1  0
  8  9  1  0
  8  2  1  0
  9  4  1  0
  4 10  1  0
  5 11  1  0
  5 12  1  0
  6 13  1  0
  6 14  1  0
  7 15  1  0
  7 16  1  0
  8 17  1  0
M  END
