
     RDKit          3D

 17 18  0  0  0  0  0  0  0  0999 V2000
    0.3509    2.2590    0.1219 O   0  0  0  0  0  0  0  0  0  0  0  0
   -0.1209    1.0897   -0.0412 C   0  0  0  0  0  0  0  0  0  0  0  0
    0.6948   -0.1164   -0.0649 C   0  0  0  0  0  0  0  0  0  0  0  0
    2.1858   -0.1311    0.2092 C   0  0  0  0  0  0  0  0  0  0  0  0
    2.8426    0.6602   -0.7017 O   0  0  0  0  0  0  0  0  0  0  0  0
   -0.0345   -1.1734   -0.3533 C   0  0  0  0  0  0  0  0  0  0  0  0
   -1.4324   -0.7552   -0.5514 C   0  0  0  0  0  0  0  0  0  0  0  0
   -2.1230   -0.2881    0.7046 C   0  0  0  0  0  0  0  0  0  0  0  0
   -1.5250    0.6879   -0.2350 C   0  0  0  0  0  0  0  0  0  0  0  0
    2.5188   -1.1849    0.2298 H   0  0  0  0  0  0  0  0  0  0  0  0
    2.3507    0.2508    1.2546 H   0  0  0  0  0  0  0  0  0  0  0  0
    2.9792    1.5534   -0.2870 H   0  0  0  0  0  0  0  0  0  0  0  0
    0.3102   -2.1916   -0.4371 H   0  0  0  0  0  0  0  0  0  0  0  0
   -2.0127   -1.1230   -1.4023 H   0  0  0  0  0  0  0  0  0  0  0  0
   -1.6127   -0.4635    1.6846 H   0  0  0  0  0  0  0  0  0  0  0  0
   -3.2103   -0.4408    0.7113 H   0  0  0  0  0  0  0  0  0  0  0  0
   -2.1616    1.3670   -0.8420 H   0  0  0  0  0  0  0  0  0  0  0  0
  1  2  2  0
  2  3  1  0
  3  4  1  0
  4  5  1  0
  3  6  2  0
  6  7  1  0
  7  8  1  0
  8  9  1  0
  9  2  1  0
  9  7  1  0
  4 10  1  0
  4 11  1  0
  5 12  1  0
  6 13  1  0
  7 14  1  0
  8 15  1  0
  8 16  1  0
  9 17  1  0
M  END
