
     RDKit          3D

 17 18  0  0  0  0  0  0  0  0999 V2000
    0.8948    0.6352   -2.3503 O   0  0  0  0  0  0  0  0  0  0  0  0
    1.1850    0.4351   -1.1471 C   0  0  0  0  0  0  0  0  0  0  0  0
    2.3115    0.5634   -0.3498 O   0  0  0  0  0  0  0  0  0  0  0  0
    1.7756   -0.4418    0.5232 C   0  0  0  0  0  0  0  0  0  0  0  0
    0.4492   -0.0430    0.0196 C   0  0  0  0  0  0  0  0  0  0  0  0
   -0.5684   -1.1228   -0.2219 C   0  0  0  0  0  0  0  0  0  0  0  0
   -1.7911   -0.3151   -0.4649 C   0  0  0  0  0  0  0  0  0  0  0  0
   -1.6644    0.8747    0.1043 C   0  0  0  0  0  0  0  0  0  0  0  0
   -0.3340    0.9669    0.7835 C   0  0  0  0  0  0  0  0  0  0  0  0
    2.0105   -0.2903    1.5840 H   0  0  0  0  0  0  0  0  0  0  0  0
    2.0982   -1.4251    0.1481 H   0  0  0  0  0  0  0  0  0  0  0  0
   -0.2887   -1.7729   -1.0486 H   0  0  0  0  0  0  0  0  0  0  0  0
   -0.6496   -1.7053    0.7408 H   0  0  0  0  0  0  0  0  0  0  0  0
   -2.6446   -0.6580   -1.0218 H   0  0  0  0  0  0  0  0  0  0  0  0
   -2.3769    1.6889    0.1095 H   0  0  0  0  0  0  0  0  0  0  0  0
   -0.4928    0.6302    1.8279 H   0  0  0  0  0  0  0  0  0  0  0  0
    0.0857    1.9802    0.7635 H   0  0  0  0  0  0  0  0  0  0  0  0
  1  2  2  0
  2  3  1  0
  3  4  1  0
  4  5  1  0
  5  6  1  0
  6  7  1  0
  7  8  2  0
  8  9  1  0
  5  2  1  0
  9  5  1  0
  4 10  1  0
  4 11  1  0
  6 12  1  0
  6 13  1  0
  7 14  1  0
  8 15  1  0
  9 16  1  0
  9 17  1  0
M  END
