
     RDKit          3D

 17 17  0  0  0  0  0  0  0  0999 V2000
   -1.2967   -2.3019   -0.8338 O   0  0  0  0  0  0  0  0  0  0  0  0
   -0.6270   -1.2972   -0.5249 C   0  0  0  0  0  0  0  0  0  0  0  0
    0.6749   -1.5029   -0.1400 O   0  0  0  0  0  0  0  0  0  0  0  0
    1.7458   -0.6270   -0.1572 C   0  0  0  0  0  0  0  0  0  0  0  0
    1.4986    0.6890    0.5215 C   0  0  0  0  0  0  0  0  0  0  0  0
    0.4867    1.3786   -0.1143 O   0  0  0  0  0  0  0  0  0  0  0  0
   -0.7791    1.0347    0.3238 C   0  0  0  0  0  0  0  0  0  0  0  0
   -1.3161   -0.0202   -0.6121 C   0  0  0  0  0  0  0  0  0  0  0  0
   -2.6692   -0.2138   -0.2558 O   0  0  0  0  0  0  0  0  0  0  0  0
    2.5963   -1.1517    0.3714 H   0  0  0  0  0  0  0  0  0  0  0  0
    2.1024   -0.4176   -1.1926 H   0  0  0  0  0  0  0  0  0  0  0  0
    2.4395    1.2966    0.3707 H   0  0  0  0  0  0  0  0  0  0  0  0
    1.3725    0.6042    1.6141 H   0  0  0  0  0  0  0  0  0  0  0  0
   -0.8351    0.7075    1.3605 H   0  0  0  0  0  0  0  0  0  0  0  0
   -1.4249    1.9314    0.2205 H   0  0  0  0  0  0  0  0  0  0  0  0
   -1.2960    0.3978   -1.6523 H   0  0  0  0  0  0  0  0  0  0  0  0
   -2.6724   -0.5076    0.7005 H   0  0  0  0  0  0  0  0  0  0  0  0
  1  2  2  0
  2  3  1  0
  3  4  1  0
  4  5  1  0
  5  6  1  0
  6  7  1  0
  7  8  1  0
  8  9  1  0
  8  2  1  0
  4 10  1  0
  4 11  1  0
  5 12  1  0
  5 13  1  0
  7 14  1  0
  7 15  1  0
  8 16  1  0
  9 17  1  0
M  END
