
     RDKit          3D

 17 18  0  0  0  0  0  0  0  0999 V2000
    1.6787    0.5723    2.1691 O   0  0  0  0  0  0  0  0  0  0  0  0
    1.3498    0.1785    1.0693 C   0  0  0  0  0  0  0  0  0  0  0  0
    1.8551    0.7266   -0.2151 C   0  0  0  0  0  0  0  0  0  0  0  0
    1.0062    0.2810   -1.1953 O   0  0  0  0  0  0  0  0  0  0  0  0
    0.3862   -0.8871   -0.7542 C   0  0  0  0  0  0  0  0  0  0  0  0
   -0.8525   -0.6849    0.0296 C   0  0  0  0  0  0  0  0  0  0  0  0
   -1.5195    0.6655   -0.0699 C   0  0  0  0  0  0  0  0  0  0  0  0
   -2.6748    0.7302    0.7129 O   0  0  0  0  0  0  0  0  0  0  0  0
    0.4095   -0.8935    0.7300 C   0  0  0  0  0  0  0  0  0  0  0  0
    2.8819    0.3091   -0.4207 H   0  0  0  0  0  0  0  0  0  0  0  0
    1.8992    1.8423   -0.1281 H   0  0  0  0  0  0  0  0  0  0  0  0
    0.6009   -1.8299   -1.2713 H   0  0  0  0  0  0  0  0  0  0  0  0
   -1.5944   -1.5216    0.0961 H   0  0  0  0  0  0  0  0  0  0  0  0
   -1.8515    0.7806   -1.1231 H   0  0  0  0  0  0  0  0  0  0  0  0
   -0.8268    1.5025    0.1384 H   0  0  0  0  0  0  0  0  0  0  0  0
   -3.3337    0.1111    0.2795 H   0  0  0  0  0  0  0  0  0  0  0  0
    0.5859   -1.8829    1.2352 H   0  0  0  0  0  0  0  0  0  0  0  0
  1  2  2  0
  2  3  1  0
  3  4  1  0
  4  5  1  0
  5  6  1  0
  6  7  1  0
  7  8  1  0
  6  9  1  0
  9  2  1  0
  9  5  1  0
  3 10  1  0
  3 11  1  0
  5 12  1  0
  6 13  1  0
  7 14  1  0
  7 15  1  0
  8 16  1  0
  9 17  1  0
M  END
