
     RDKit          3D

 17 18  0  0  0  0  0  0  0  0999 V2000
    1.4051    2.4209    0.2443 O   0  0  0  0  0  0  0  0  0  0  0  0
    0.8209    1.3655    0.0608 C   0  0  0  0  0  0  0  0  0  0  0  0
    1.1931   -0.0609    0.2491 C   0  0  0  0  0  0  0  0  0  0  0  0
    2.4245   -0.4372   -0.2333 O   0  0  0  0  0  0  0  0  0  0  0  0
    0.1343   -0.4104   -0.7849 C   0  0  0  0  0  0  0  0  0  0  0  0
   -0.8198   -1.4283   -0.2458 C   0  0  0  0  0  0  0  0  0  0  0  0
   -1.5133   -0.8428    0.7747 O   0  0  0  0  0  0  0  0  0  0  0  0
   -1.4862    0.5121    0.6457 C   0  0  0  0  0  0  0  0  0  0  0  0
   -0.5125    0.8905   -0.4238 C   0  0  0  0  0  0  0  0  0  0  0  0
    1.0031   -0.4711    1.2446 H   0  0  0  0  0  0  0  0  0  0  0  0
    3.1913   -0.1417    0.2963 H   0  0  0  0  0  0  0  0  0  0  0  0
    0.4714   -0.5089   -1.8086 H   0  0  0  0  0  0  0  0  0  0  0  0
   -1.4421   -1.9180   -1.0093 H   0  0  0  0  0  0  0  0  0  0  0  0
   -0.2018   -2.2566    0.2116 H   0  0  0  0  0  0  0  0  0  0  0  0
   -1.2353    0.9498    1.6473 H   0  0  0  0  0  0  0  0  0  0  0  0
   -2.5151    0.9110    0.4184 H   0  0  0  0  0  0  0  0  0  0  0  0
   -0.9176    1.4262   -1.2869 H   0  0  0  0  0  0  0  0  0  0  0  0
  1  2  2  0
  2  3  1  0
  3  4  1  0
  3  5  1  0
  5  6  1  0
  6  7  1  0
  7  8  1  0
  8  9  1  0
  9  2  1  0
  9  5  1  0
  3 10  1  0
  4 11  1  0
  5 12  1  0
  6 13  1  0
  6 14  1  0
  8 15  1  0
  8 16  1  0
  9 17  1  0
M  END
