
     RDKit          3D

 12 13  0  0  0  0  0  0  0  0999 V2000
   -1.6119   -1.4322    1.5890 O   0  0  0  0  0  0  0  0  0  0  0  0
   -1.0882   -0.7316    0.7151 C   0  0  0  0  0  0  0  0  0  0  0  0
   -1.4596    0.5531    0.3549 O   0  0  0  0  0  0  0  0  0  0  0  0
   -0.5135    0.9372   -0.6473 C   0  0  0  0  0  0  0  0  0  0  0  0
    0.7972    1.0533    0.0379 C   0  0  0  0  0  0  0  0  0  0  0  0
    1.2241   -0.1998    0.1983 C   0  0  0  0  0  0  0  0  0  0  0  0
    0.0476   -1.0390   -0.1752 C   0  0  0  0  0  0  0  0  0  0  0  0
   -0.3732   -0.3029   -1.3184 O   0  0  0  0  0  0  0  0  0  0  0  0
   -0.8076    1.7507   -1.2669 H   0  0  0  0  0  0  0  0  0  0  0  0
    1.3193    1.9518    0.3522 H   0  0  0  0  0  0  0  0  0  0  0  0
    2.2163   -0.4753    0.5290 H   0  0  0  0  0  0  0  0  0  0  0  0
    0.2494   -2.0654   -0.3687 H   0  0  0  0  0  0  0  0  0  0  0  0
  1  2  2  0
  2  3  1  0
  3  4  1  0
  4  5  1  0
  5  6  2  0
  6  7  1  0
  7  8  1  0
  7  2  1  0
  8  4  1  0
  4  9  1  0
  5 10  1  0
  6 11  1  0
  7 12  1  0
M  END
