
     RDKit          3D

 19 21  0  0  0  0  0  0  0  0999 V2000
   -1.3230    1.1451    1.8587 O   0  0  0  0  0  0  0  0  0  0  0  0
   -0.9066    0.9404    0.7519 C   0  0  0  0  0  0  0  0  0  0  0  0
    0.2238    1.7250    0.2285 C   0  0  0  0  0  0  0  0  0  0  0  0
    1.3141    0.7745   -0.1488 C   0  0  0  0  0  0  0  0  0  0  0  0
    1.4812   -0.5191    0.6119 C   0  0  0  0  0  0  0  0  0  0  0  0
    0.9134   -0.4940   -0.7315 C   0  0  0  0  0  0  0  0  0  0  0  0
   -0.5237   -0.7317   -1.0003 C   0  0  0  0  0  0  0  0  0  0  0  0
   -1.2815   -1.5267    0.0895 C   0  0  0  0  0  0  0  0  0  0  0  0
   -1.4946   -0.0837   -0.1163 C   0  0  0  0  0  0  0  0  0  0  0  0
    0.5735    2.5094    0.9198 H   0  0  0  0  0  0  0  0  0  0  0  0
   -0.1210    2.2430   -0.7123 H   0  0  0  0  0  0  0  0  0  0  0  0
    2.2441    1.2908   -0.5205 H   0  0  0  0  0  0  0  0  0  0  0  0
    2.5422   -0.8710    0.7316 H   0  0  0  0  0  0  0  0  0  0  0  0
    0.8623   -0.6585    1.5207 H   0  0  0  0  0  0  0  0  0  0  0  0
    1.5851   -0.8767   -1.5590 H   0  0  0  0  0  0  0  0  0  0  0  0
   -0.8452   -1.0060   -2.0418 H   0  0  0  0  0  0  0  0  0  0  0  0
   -0.7012   -1.8460    0.9766 H   0  0  0  0  0  0  0  0  0  0  0  0
   -2.0756   -2.2205   -0.2564 H   0  0  0  0  0  0  0  0  0  0  0  0
   -2.4671    0.2057   -0.6023 H   0  0  0  0  0  0  0  0  0  0  0  0
  1  2  2  0
  2  3  1  0
  3  4  1  0
  4  5  1  0
  5  6  1  0
  6  7  1  0
  7  8  1  0
  8  9  1  0
  9  2  1  0
  6  4  1  0
  9  7  1  0
  3 10  1  0
  3 11  1  0
  4 12  1  0
  5 13  1  0
  5 14  1  0
  6 15  1  0
  7 16  1  0
  8 17  1  0
  8 18  1  0
  9 19  1  0
M  END
