
     RDKit          3D

 17 18  0  0  0  0  0  0  0  0999 V2000
    0.5348    2.4617    1.4643 O   0  0  0  0  0  0  0  0  0  0  0  0
    0.0304    1.4635    0.9112 C   0  0  0  0  0  0  0  0  0  0  0  0
    0.1534    1.1406   -0.5683 C   0  0  0  0  0  0  0  0  0  0  0  0
   -0.0908   -0.3288   -0.4570 C   0  0  0  0  0  0  0  0  0  0  0  0
    1.0503   -0.9383    0.3918 C   0  0  0  0  0  0  0  0  0  0  0  0
    2.2627   -0.7354   -0.1660 O   0  0  0  0  0  0  0  0  0  0  0  0
   -1.2310   -1.1382   -0.5641 C   0  0  0  0  0  0  0  0  0  0  0  0
   -1.4311   -0.0931    0.3578 C   0  0  0  0  0  0  0  0  0  0  0  0
   -0.7434    0.4139    1.4382 O   0  0  0  0  0  0  0  0  0  0  0  0
   -0.7157    1.6076   -1.0787 H   0  0  0  0  0  0  0  0  0  0  0  0
    1.1066    1.4373   -0.9736 H   0  0  0  0  0  0  0  0  0  0  0  0
    0.9688   -0.4661    1.4102 H   0  0  0  0  0  0  0  0  0  0  0  0
    0.8980   -2.0189    0.5541 H   0  0  0  0  0  0  0  0  0  0  0  0
    2.3196   -0.2030   -0.9693 H   0  0  0  0  0  0  0  0  0  0  0  0
   -1.2170   -2.1879   -0.1744 H   0  0  0  0  0  0  0  0  0  0  0  0
   -1.7823   -1.1438   -1.5460 H   0  0  0  0  0  0  0  0  0  0  0  0
   -2.1132    0.7287   -0.0302 H   0  0  0  0  0  0  0  0  0  0  0  0
  1  2  2  0
  2  3  1  0
  3  4  1  0
  4  5  1  0
  5  6  1  0
  4  7  1  0
  7  8  1  0
  8  9  1  0
  9  2  1  0
  8  4  1  0
  3 10  1  0
  3 11  1  0
  5 12  1  0
  5 13  1  0
  6 14  1  0
  7 15  1  0
  7 16  1  0
  8 17  1  0
M  END
