
     RDKit          3D

 19 19  0  0  0  0  0  0  0  0999 V2000
   -0.4640   -1.9719    1.2993 O   0  0  0  0  0  0  0  0  0  0  0  0
   -0.4416   -1.3880    0.2414 C   0  0  0  0  0  0  0  0  0  0  0  0
    0.7698   -1.7199   -0.5393 C   0  0  0  0  0  0  0  0  0  0  0  0
    1.7999   -0.6997   -0.2380 C   0  0  0  0  0  0  0  0  0  0  0  0
    1.7532    0.6206   -0.1211 C   0  0  0  0  0  0  0  0  0  0  0  0
    0.7616    1.6796   -0.2155 C   0  0  0  0  0  0  0  0  0  0  0  0
   -0.5138    1.7604    0.0898 C   0  0  0  0  0  0  0  0  0  0  0  0
   -1.4919    0.8242    0.6568 C   0  0  0  0  0  0  0  0  0  0  0  0
   -1.5921   -0.4904   -0.0472 C   0  0  0  0  0  0  0  0  0  0  0  0
    0.5269   -1.7641   -1.6269 H   0  0  0  0  0  0  0  0  0  0  0  0
    1.1659   -2.7366   -0.2621 H   0  0  0  0  0  0  0  0  0  0  0  0
    2.7988   -1.1321   -0.0818 H   0  0  0  0  0  0  0  0  0  0  0  0
    2.7609    1.0022    0.1077 H   0  0  0  0  0  0  0  0  0  0  0  0
    1.1879    2.6057   -0.6337 H   0  0  0  0  0  0  0  0  0  0  0  0
   -0.9140    2.7648   -0.1408 H   0  0  0  0  0  0  0  0  0  0  0  0
   -1.3678    0.6815    1.7507 H   0  0  0  0  0  0  0  0  0  0  0  0
   -2.5076    1.3116    0.5570 H   0  0  0  0  0  0  0  0  0  0  0  0
   -1.7299   -0.3435   -1.1241 H   0  0  0  0  0  0  0  0  0  0  0  0
   -2.5023   -1.0043    0.3279 H   0  0  0  0  0  0  0  0  0  0  0  0
  1  2  2  0
  2  3  1  0
  3  4  1  0
  4  5  2  3
  5  6  1  0
  6  7  2  3
  7  8  1  0
  8  9  1  0
  9  2  1  0
  3 10  1  0
  3 11  1  0
  4 12  1  0
  5 13  1  0
  6 14  1  0
  7 15  1  0
  8 16  1  0
  8 17  1  0
  9 18  1  0
  9 19  1  0
M  END
