
     RDKit          3D

 17 18  0  0  0  0  0  0  0  0999 V2000
   -0.8370   -2.2419    0.0754 O   0  0  0  0  0  0  0  0  0  0  0  0
   -0.1916   -1.2238    0.2170 C   0  0  0  0  0  0  0  0  0  0  0  0
    1.2698   -1.2655    0.4900 C   0  0  0  0  0  0  0  0  0  0  0  0
    1.8024    0.0996    0.7244 C   0  0  0  0  0  0  0  0  0  0  0  0
    1.2379    1.2100    0.2851 C   0  0  0  0  0  0  0  0  0  0  0  0
   -0.0216    1.1390   -0.5049 C   0  0  0  0  0  0  0  0  0  0  0  0
   -0.8891    0.0655    0.1124 C   0  0  0  0  0  0  0  0  0  0  0  0
   -2.3488    0.0555   -0.0432 C   0  0  0  0  0  0  0  0  0  0  0  0
   -1.7400    0.4866    1.1232 O   0  0  0  0  0  0  0  0  0  0  0  0
    1.8433   -1.6945   -0.3641 H   0  0  0  0  0  0  0  0  0  0  0  0
    1.4896   -1.9463    1.3599 H   0  0  0  0  0  0  0  0  0  0  0  0
    2.7190    0.1812    1.2971 H   0  0  0  0  0  0  0  0  0  0  0  0
    1.6682    2.2046    0.4826 H   0  0  0  0  0  0  0  0  0  0  0  0
    0.2149    0.9089   -1.5836 H   0  0  0  0  0  0  0  0  0  0  0  0
   -0.5725    2.0962   -0.4427 H   0  0  0  0  0  0  0  0  0  0  0  0
   -2.8846   -0.8990    0.0572 H   0  0  0  0  0  0  0  0  0  0  0  0
   -2.7597    0.8237   -0.7559 H   0  0  0  0  0  0  0  0  0  0  0  0
  1  2  2  0
  2  3  1  0
  3  4  1  0
  4  5  2  0
  5  6  1  0
  6  7  1  0
  7  8  1  0
  8  9  1  0
  7  2  1  0
  9  7  1  0
  3 10  1  0
  3 11  1  0
  4 12  1  0
  5 13  1  0
  6 14  1  0
  6 15  1  0
  8 16  1  0
  8 17  1  0
M  END
