
     RDKit          3D

 17 19  0  0  0  0  0  0  0  0999 V2000
    3.1219   -0.0806    0.2699 O   0  0  0  0  0  0  0  0  0  0  0  0
    1.9177   -0.0175   -0.1530 C   0  0  0  0  0  0  0  0  0  0  0  0
    1.0204   -1.1966   -0.0664 C   0  0  0  0  0  0  0  0  0  0  0  0
   -0.2556   -0.7516    0.5870 C   0  0  0  0  0  0  0  0  0  0  0  0
   -1.3333   -0.5938   -0.4641 C   0  0  0  0  0  0  0  0  0  0  0  0
   -1.1355    0.8788   -0.4984 C   0  0  0  0  0  0  0  0  0  0  0  0
    0.1188    1.5680   -0.2792 C   0  0  0  0  0  0  0  0  0  0  0  0
    1.3722    1.1265   -0.7106 O   0  0  0  0  0  0  0  0  0  0  0  0
   -0.3432    0.7130    0.8412 C   0  0  0  0  0  0  0  0  0  0  0  0
    1.4962   -2.0516    0.4482 H   0  0  0  0  0  0  0  0  0  0  0  0
    0.8600   -1.5306   -1.1334 H   0  0  0  0  0  0  0  0  0  0  0  0
   -0.5599   -1.3233    1.4915 H   0  0  0  0  0  0  0  0  0  0  0  0
   -1.1228   -1.1040   -1.4268 H   0  0  0  0  0  0  0  0  0  0  0  0
   -2.3472   -0.9089   -0.1218 H   0  0  0  0  0  0  0  0  0  0  0  0
   -2.0714    1.4711   -0.4350 H   0  0  0  0  0  0  0  0  0  0  0  0
    0.0729    2.6571   -0.0654 H   0  0  0  0  0  0  0  0  0  0  0  0
   -0.8112    1.1439    1.7161 H   0  0  0  0  0  0  0  0  0  0  0  0
  1  2  2  0
  2  3  1  0
  3  4  1  0
  4  5  1  0
  5  6  1  0
  6  7  1  0
  7  8  1  0
  7  9  1  0
  8  2  1  0
  9  4  1  0
  9  6  1  0
  3 10  1  0
  3 11  1  0
  4 12  1  0
  5 13  1  0
  5 14  1  0
  6 15  1  0
  7 16  1  0
  9 17  1  0
M  END
