
     RDKit          3D

 14 15  0  0  0  0  0  0  0  0999 V2000
   -0.4091    2.5789   -1.3184 O   0  0  0  0  0  0  0  0  0  0  0  0
   -0.1172    1.6018   -0.5838 C   0  0  0  0  0  0  0  0  0  0  0  0
    1.0924    1.4844    0.1103 O   0  0  0  0  0  0  0  0  0  0  0  0
    1.3578    0.1217    0.3205 C   0  0  0  0  0  0  0  0  0  0  0  0
   -0.0347   -0.4953    0.4719 C   0  0  0  0  0  0  0  0  0  0  0  0
   -0.5016   -0.7919    1.7194 O   0  0  0  0  0  0  0  0  0  0  0  0
   -0.6699   -0.9152   -0.7769 C   0  0  0  0  0  0  0  0  0  0  0  0
   -0.9592    0.4373   -0.3218 C   0  0  0  0  0  0  0  0  0  0  0  0
    1.9913   -0.0652    1.1981 H   0  0  0  0  0  0  0  0  0  0  0  0
    1.9008   -0.3429   -0.5494 H   0  0  0  0  0  0  0  0  0  0  0  0
   -0.1533   -1.5950    2.1380 H   0  0  0  0  0  0  0  0  0  0  0  0
   -1.5233   -1.6295   -0.8096 H   0  0  0  0  0  0  0  0  0  0  0  0
   -0.0121   -1.0388   -1.6817 H   0  0  0  0  0  0  0  0  0  0  0  0
   -1.9618    0.6497    0.0833 H   0  0  0  0  0  0  0  0  0  0  0  0
  1  2  2  0
  2  3  1  0
  3  4  1  0
  4  5  1  0
  5  6  1  0
  5  7  1  0
  7  8  1  0
  8  2  1  0
  8  5  1  0
  4  9  1  0
  4 10  1  0
  6 11  1  0
  7 12  1  0
  7 13  1  0
  8 14  1  0
M  END
