
     RDKit          3D

 13 14  0  0  0  0  0  0  0  0999 V2000
    2.3235    1.3468    0.2679 O   0  0  0  0  0  0  0  0  0  0  0  0
    1.2658    0.7231    0.0966 C   0  0  0  0  0  0  0  0  0  0  0  0
    1.1604   -0.7628    0.0120 C   0  0  0  0  0  0  0  0  0  0  0  0
   -0.0033   -1.3434   -0.1978 C   0  0  0  0  0  0  0  0  0  0  0  0
   -1.1951   -0.6009   -0.3692 C   0  0  0  0  0  0  0  0  0  0  0  0
   -2.1969   -0.0604    0.2585 O   0  0  0  0  0  0  0  0  0  0  0  0
   -1.1012    0.5799    0.5921 C   0  0  0  0  0  0  0  0  0  0  0  0
   -0.0703    1.3663   -0.0584 C   0  0  0  0  0  0  0  0  0  0  0  0
   -0.1325    2.4310   -0.6857 O   0  0  0  0  0  0  0  0  0  0  0  0
    2.0877   -1.3392    0.1324 H   0  0  0  0  0  0  0  0  0  0  0  0
   -0.0057   -2.4378   -0.2339 H   0  0  0  0  0  0  0  0  0  0  0  0
   -1.2636   -0.2888   -1.5028 H   0  0  0  0  0  0  0  0  0  0  0  0
   -0.8690    0.3863    1.6885 H   0  0  0  0  0  0  0  0  0  0  0  0
  1  2  2  0
  2  3  1  0
  3  4  2  0
  4  5  1  0
  5  6  1  0
  6  7  1  0
  7  8  1  0
  8  9  2  0
  8  2  1  0
  7  5  1  0
  3 10  1  0
  4 11  1  0
  5 12  1  0
  7 13  1  0
M  END
