
     RDKit          3D

 16 16  0  0  0  0  0  0  0  0999 V2000
    3.2021    1.4503    1.1045 O   0  0  0  0  0  0  0  0  0  0  0  0
    2.2049    0.7683    0.8208 C   0  0  0  0  0  0  0  0  0  0  0  0
    1.9045   -0.4376    0.0334 C   0  0  0  0  0  0  0  0  0  0  0  0
    0.5880    0.2729   -0.1334 C   0  0  0  0  0  0  0  0  0  0  0  0
   -0.6225   -0.6013   -0.1577 C   0  0  0  0  0  0  0  0  0  0  0  0
   -1.8410    0.3086   -0.3336 C   0  0  0  0  0  0  0  0  0  0  0  0
   -3.0137   -0.4739   -0.3631 O   0  0  0  0  0  0  0  0  0  0  0  0
    0.8688    0.8576    1.1446 O   0  0  0  0  0  0  0  0  0  0  0  0
    2.4940   -0.5640   -0.9025 H   0  0  0  0  0  0  0  0  0  0  0  0
    1.7611   -1.3574    0.6338 H   0  0  0  0  0  0  0  0  0  0  0  0
    0.6521    1.0472   -0.9400 H   0  0  0  0  0  0  0  0  0  0  0  0
   -0.5999   -1.4052   -0.8885 H   0  0  0  0  0  0  0  0  0  0  0  0
   -0.7272   -1.0424    0.8749 H   0  0  0  0  0  0  0  0  0  0  0  0
   -1.7090    0.9145   -1.2247 H   0  0  0  0  0  0  0  0  0  0  0  0
   -1.9610    0.9770    0.5435 H   0  0  0  0  0  0  0  0  0  0  0  0
   -3.2010   -0.7146    0.5803 H   0  0  0  0  0  0  0  0  0  0  0  0
  1  2  2  0
  2  3  1  0
  3  4  1  0
  4  5  1  0
  5  6  1  0
  6  7  1  0
  4  8  1  0
  8  2  1  0
  3  9  1  0
  3 10  1  0
  4 11  1  0
  5 12  1  0
  5 13  1  0
  6 14  1  0
  6 15  1  0
  7 16  1  0
M  END
