
     RDKit          3D

 17 18  0  0  0  0  0  0  0  0999 V2000
    3.7499    0.2487    0.1703 O   0  0  0  0  0  0  0  0  0  0  0  0
    2.5033    0.2448    0.0236 C   0  0  0  0  0  0  0  0  0  0  0  0
    1.9156   -0.8711   -0.5547 O   0  0  0  0  0  0  0  0  0  0  0  0
    0.5620   -1.1592   -0.4497 C   0  0  0  0  0  0  0  0  0  0  0  0
   -0.3226    0.0035   -0.1719 C   0  0  0  0  0  0  0  0  0  0  0  0
   -1.7155   -0.3846    0.3107 C   0  0  0  0  0  0  0  0  0  0  0  0
   -1.4992    0.3379   -0.9844 C   0  0  0  0  0  0  0  0  0  0  0  0
    0.3139    1.0867    0.6407 C   0  0  0  0  0  0  0  0  0  0  0  0
    1.6697    1.2777    0.3988 O   0  0  0  0  0  0  0  0  0  0  0  0
    0.4419   -1.9086    0.3835 H   0  0  0  0  0  0  0  0  0  0  0  0
    0.2441   -1.6757   -1.3784 H   0  0  0  0  0  0  0  0  0  0  0  0
   -2.1535    0.1437    1.1699 H   0  0  0  0  0  0  0  0  0  0  0  0
   -2.0303   -1.4445    0.2267 H   0  0  0  0  0  0  0  0  0  0  0  0
   -1.7863   -0.1844   -1.9033 H   0  0  0  0  0  0  0  0  0  0  0  0
   -1.8564    1.3975   -0.9632 H   0  0  0  0  0  0  0  0  0  0  0  0
   -0.2069    2.0509    0.4437 H   0  0  0  0  0  0  0  0  0  0  0  0
    0.1703    0.8368    1.7082 H   0  0  0  0  0  0  0  0  0  0  0  0
  1  2  2  0
  2  3  1  0
  3  4  1  0
  4  5  1  0
  5  6  1  0
  6  7  1  0
  5  8  1  0
  8  9  1  0
  9  2  1  0
  7  5  1  0
  4 10  1  0
  4 11  1  0
  6 12  1  0
  6 13  1  0
  7 14  1  0
  7 15  1  0
  8 16  1  0
  8 17  1  0
M  END
