
     RDKit          3D

 21 22  0  0  0  0  0  0  0  0999 V2000
   -1.4485   -1.6026    1.6053 O   0  0  0  0  0  0  0  0  0  0  0  0
   -1.0214   -1.1747    0.5346 C   0  0  0  0  0  0  0  0  0  0  0  0
   -1.8862   -0.0823   -0.0158 C   0  0  0  0  0  0  0  0  0  0  0  0
   -1.0614    1.1610    0.2853 C   0  0  0  0  0  0  0  0  0  0  0  0
    0.0284    1.3792   -0.6771 C   0  0  0  0  0  0  0  0  0  0  0  0
    1.1940    0.5349   -0.6995 C   0  0  0  0  0  0  0  0  0  0  0  0
    1.7086    0.1577    0.7070 C   0  0  0  0  0  0  0  0  0  0  0  0
    1.2951   -0.8249   -0.3681 C   0  0  0  0  0  0  0  0  0  0  0  0
    0.1799   -1.7165   -0.0552 C   0  0  0  0  0  0  0  0  0  0  0  0
   -2.8620   -0.0450    0.4716 H   0  0  0  0  0  0  0  0  0  0  0  0
   -1.9401   -0.2180   -1.1070 H   0  0  0  0  0  0  0  0  0  0  0  0
   -1.7891    2.0191    0.1756 H   0  0  0  0  0  0  0  0  0  0  0  0
   -0.7504    1.1977    1.3475 H   0  0  0  0  0  0  0  0  0  0  0  0
   -0.4381    1.4196   -1.7081 H   0  0  0  0  0  0  0  0  0  0  0  0
    0.3639    2.4530   -0.5257 H   0  0  0  0  0  0  0  0  0  0  0  0
    2.0127    0.9743   -1.3509 H   0  0  0  0  0  0  0  0  0  0  0  0
    1.0420    0.2534    1.5571 H   0  0  0  0  0  0  0  0  0  0  0  0
    2.7706    0.3301    0.9274 H   0  0  0  0  0  0  0  0  0  0  0  0
    2.1716   -1.3954   -0.7566 H   0  0  0  0  0  0  0  0  0  0  0  0
   -0.1383   -2.2911   -0.9755 H   0  0  0  0  0  0  0  0  0  0  0  0
    0.5688   -2.5295    0.6279 H   0  0  0  0  0  0  0  0  0  0  0  0
  1  2  2  0
  2  3  1  0
  3  4  1  0
  4  5  1  0
  5  6  1  0
  6  7  1  0
  7  8  1  0
  8  9  1  0
  9  2  1  0
  8  6  1  0
  3 10  1  0
  3 11  1  0
  4 12  1  0
  4 13  1  0
  5 14  1  0
  5 15  1  0
  6 16  1  0
  7 17  1  0
  7 18  1  0
  8 19  1  0
  9 20  1  0
  9 21  1  0
M  END
