
     RDKit          3D

 17 18  0  0  0  0  0  0  0  0999 V2000
   -0.2261   -0.3556   -2.5536 O   0  0  0  0  0  0  0  0  0  0  0  0
    0.2813   -0.2071   -1.4207 C   0  0  0  0  0  0  0  0  0  0  0  0
    1.6397   -0.1993   -1.1487 O   0  0  0  0  0  0  0  0  0  0  0  0
    1.8418    0.1611    0.2266 C   0  0  0  0  0  0  0  0  0  0  0  0
    0.5981   -0.4285    0.8572 C   0  0  0  0  0  0  0  0  0  0  0  0
    0.7049   -1.8317    0.7921 O   0  0  0  0  0  0  0  0  0  0  0  0
   -0.4329   -0.0138   -0.1644 C   0  0  0  0  0  0  0  0  0  0  0  0
   -1.8577   -0.1384    0.0282 C   0  0  0  0  0  0  0  0  0  0  0  0
   -1.1890    1.2253    0.1373 C   0  0  0  0  0  0  0  0  0  0  0  0
    2.7708   -0.2239    0.6297 H   0  0  0  0  0  0  0  0  0  0  0  0
    1.7278    1.2617    0.2737 H   0  0  0  0  0  0  0  0  0  0  0  0
    0.3998   -0.0644    1.8599 H   0  0  0  0  0  0  0  0  0  0  0  0
    1.0857   -2.0127   -0.1205 H   0  0  0  0  0  0  0  0  0  0  0  0
   -2.5021   -0.2318   -0.8746 H   0  0  0  0  0  0  0  0  0  0  0  0
   -2.2930   -0.5742    0.9524 H   0  0  0  0  0  0  0  0  0  0  0  0
   -1.3892    1.9857   -0.6378 H   0  0  0  0  0  0  0  0  0  0  0  0
   -1.1599    1.6475    1.1632 H   0  0  0  0  0  0  0  0  0  0  0  0
  1  2  2  0
  2  3  1  0
  3  4  1  0
  4  5  1  0
  5  6  1  0
  5  7  1  0
  7  8  1  0
  8  9  1  0
  7  2  1  0
  9  7  1  0
  4 10  1  0
  4 11  1  0
  5 12  1  0
  6 13  1  0
  8 14  1  0
  8 15  1  0
  9 16  1  0
  9 17  1  0
M  END
