
     RDKit          3D

 17 18  0  0  0  0  0  0  0  0999 V2000
    0.0375    0.6256    2.4079 O   0  0  0  0  0  0  0  0  0  0  0  0
   -0.0042    0.4583    1.2327 C   0  0  0  0  0  0  0  0  0  0  0  0
    0.4738    1.3343    0.1204 C   0  0  0  0  0  0  0  0  0  0  0  0
    1.5316    0.3705   -0.4405 C   0  0  0  0  0  0  0  0  0  0  0  0
    0.7280   -0.9216   -0.4521 C   0  0  0  0  0  0  0  0  0  0  0  0
   -0.5212   -0.6376    0.3557 C   0  0  0  0  0  0  0  0  0  0  0  0
   -1.1099   -1.6647    0.9570 O   0  0  0  0  0  0  0  0  0  0  0  0
   -1.3808    0.2272   -0.5465 C   0  0  0  0  0  0  0  0  0  0  0  0
   -0.5677    1.3341   -0.7973 O   0  0  0  0  0  0  0  0  0  0  0  0
    0.8582    2.2871    0.4140 H   0  0  0  0  0  0  0  0  0  0  0  0
    1.8936    0.6694   -1.4159 H   0  0  0  0  0  0  0  0  0  0  0  0
    2.3041    0.2860    0.3491 H   0  0  0  0  0  0  0  0  0  0  0  0
    1.3043   -1.7673   -0.1004 H   0  0  0  0  0  0  0  0  0  0  0  0
    0.4724   -1.0918   -1.5384 H   0  0  0  0  0  0  0  0  0  0  0  0
   -2.0713   -1.8132    0.8233 H   0  0  0  0  0  0  0  0  0  0  0  0
   -1.7100   -0.2899   -1.4517 H   0  0  0  0  0  0  0  0  0  0  0  0
   -2.2385    0.5936    0.0828 H   0  0  0  0  0  0  0  0  0  0  0  0
  1  2  2  0
  2  3  1  0
  3  4  1  0
  4  5  1  0
  5  6  1  0
  6  7  1  0
  6  8  1  0
  8  9  1  0
  6  2  1  0
  9  3  1  0
  3 10  1  0
  4 11  1  0
  4 12  1  0
  5 13  1  0
  5 14  1  0
  7 15  1  0
  8 16  1  0
  8 17  1  0
M  END
