
     RDKit          3D

 17 18  0  0  0  0  0  0  0  0999 V2000
   -0.3532   -2.4060   -0.7811 O   0  0  0  0  0  0  0  0  0  0  0  0
   -0.4819   -1.2641   -0.4698 C   0  0  0  0  0  0  0  0  0  0  0  0
   -1.7096   -0.6613    0.0985 C   0  0  0  0  0  0  0  0  0  0  0  0
   -1.8052    0.7064   -0.1488 O   0  0  0  0  0  0  0  0  0  0  0  0
   -0.7167    1.4568    0.2860 C   0  0  0  0  0  0  0  0  0  0  0  0
    0.3545    0.5430    0.7005 C   0  0  0  0  0  0  0  0  0  0  0  0
    1.6213    0.1688    0.2064 C   0  0  0  0  0  0  0  0  0  0  0  0
    2.4085   -0.7269    0.9673 O   0  0  0  0  0  0  0  0  0  0  0  0
    0.5809   -0.2995   -0.6148 C   0  0  0  0  0  0  0  0  0  0  0  0
   -2.5682   -1.1226   -0.4359 H   0  0  0  0  0  0  0  0  0  0  0  0
   -1.8514   -0.9045    1.1686 H   0  0  0  0  0  0  0  0  0  0  0  0
   -0.4300    2.1517   -0.5477 H   0  0  0  0  0  0  0  0  0  0  0  0
   -0.9826    2.1212    1.1438 H   0  0  0  0  0  0  0  0  0  0  0  0
    0.0091   -0.0406    1.6095 H   0  0  0  0  0  0  0  0  0  0  0  0
    2.2967    0.9749   -0.1902 H   0  0  0  0  0  0  0  0  0  0  0  0
    3.2003   -0.9708    0.4644 H   0  0  0  0  0  0  0  0  0  0  0  0
    0.4276    0.2732   -1.5868 H   0  0  0  0  0  0  0  0  0  0  0  0
  1  2  2  0
  2  3  1  0
  3  4  1  0
  4  5  1  0
  5  6  1  0
  6  7  1  0
  7  8  1  0
  7  9  1  0
  9  2  1  0
  9  6  1  0
  3 10  1  0
  3 11  1  0
  5 12  1  0
  5 13  1  0
  6 14  1  0
  7 15  1  0
  8 16  1  0
  9 17  1  0
M  END
