
     RDKit          3D

 17 19  0  0  0  0  0  0  0  0999 V2000
    1.1157    2.4141   -0.7440 O   0  0  0  0  0  0  0  0  0  0  0  0
    0.7530    1.3053   -0.4311 C   0  0  0  0  0  0  0  0  0  0  0  0
    1.5476    0.3501    0.3752 C   0  0  0  0  0  0  0  0  0  0  0  0
    1.0337   -1.0232   -0.0132 C   0  0  0  0  0  0  0  0  0  0  0  0
   -0.3310   -0.8142   -0.5736 C   0  0  0  0  0  0  0  0  0  0  0  0
   -1.3530   -0.6874    0.5664 C   0  0  0  0  0  0  0  0  0  0  0  0
   -2.6122   -0.2361    0.1342 O   0  0  0  0  0  0  0  0  0  0  0  0
   -1.4466    0.6370    0.4146 C   0  0  0  0  0  0  0  0  0  0  0  0
   -0.5197    0.6784   -0.7720 C   0  0  0  0  0  0  0  0  0  0  0  0
    2.6309    0.4495    0.2505 H   0  0  0  0  0  0  0  0  0  0  0  0
    1.2971    0.4913    1.4679 H   0  0  0  0  0  0  0  0  0  0  0  0
    1.7311   -1.5017   -0.7588 H   0  0  0  0  0  0  0  0  0  0  0  0
    0.9333   -1.6905    0.8794 H   0  0  0  0  0  0  0  0  0  0  0  0
   -0.6541   -1.4498   -1.3965 H   0  0  0  0  0  0  0  0  0  0  0  0
   -1.3167   -1.4284    1.3582 H   0  0  0  0  0  0  0  0  0  0  0  0
   -1.7822    1.5193    0.9240 H   0  0  0  0  0  0  0  0  0  0  0  0
   -1.0268    0.9863   -1.6815 H   0  0  0  0  0  0  0  0  0  0  0  0
  1  2  2  0
  2  3  1  0
  3  4  1  0
  4  5  1  0
  5  6  1  0
  6  7  1  0
  7  8  1  0
  8  9  1  0
  9  2  1  0
  9  5  1  0
  8  6  1  0
  3 10  1  0
  3 11  1  0
  4 12  1  0
  4 13  1  0
  5 14  1  0
  6 15  1  0
  8 16  1  0
  9 17  1  0
M  END
