
     RDKit          2D

 15 17  0  0  0  0  0  0  0  0999 V2000
    2.5607    0.0000    0.0000 O   0  0  0  0  0  0  0  0  0  0  0  0
    1.0607    0.0000    0.0000 C   0  0  0  0  0  0  0  0  0  0  0  0
   -0.0000   -1.0607    0.0000 O   0  0  0  0  0  0  0  0  0  0  0  0
   -1.0607    0.0000    0.0000 C   0  0  0  0  0  0  0  0  0  0  0  0
   -2.1213    1.0607    0.0000 C   0  0  0  0  0  0  0  0  0  0  0  0
   -1.0607    2.1213    0.0000 C   0  0  0  0  0  0  0  0  0  0  0  0
   -1.0607    3.6213    0.0000 O   0  0  0  0  0  0  0  0  0  0  0  0
   -1.4213    1.0607    0.0000 C   0  0  0  0  0  0  0  0  0  0  0  0
    0.0000    1.0607    0.0000 C   0  0  0  0  0  0  0  0  0  0  0  0
   -3.0448    2.2427    0.0000 H   0  0  0  0  0  0  0  0  0  0  0  0
   -2.8193    0.5154    0.0000 H   0  0  0  0  0  0  0  0  0  0  0  0
    0.2384    4.3713    0.0000 H   0  0  0  0  0  0  0  0  0  0  0  0
   -2.0503    0.6027    0.0000 H   0  0  0  0  0  0  0  0  0  0  0  0
   -3.3034    1.9841    0.0000 H   0  0  0  0  0  0  0  0  0  0  0  0
    1.0607    2.1213    0.0000 H   0  0  0  0  0  0  0  0  0  0  0  0
  1  2  2  0
  2  3  1  0
  3  4  1  0
  4  5  1  0
  5  6  1  0
  6  7  1  0
  6  8  1  0
  6  9  1  0
  9  2  1  0
  8  4  1  0
  9  4  1  0
  5 10  1  0
  5 11  1  0
  7 12  1  0
  8 13  1  0
  8 14  1  0
  9 15  1  0
M  END
