
     RDKit          3D

 15 16  0  0  0  0  0  0  0  0999 V2000
    0.9605    2.4593   -0.7847 O   0  0  0  0  0  0  0  0  0  0  0  0
    0.3980    1.3935   -0.4964 C   0  0  0  0  0  0  0  0  0  0  0  0
   -1.0260    1.1997   -0.2489 C   0  0  0  0  0  0  0  0  0  0  0  0
   -1.9564    1.9276   -0.6797 O   0  0  0  0  0  0  0  0  0  0  0  0
   -1.1874   -0.0039    0.5984 C   0  0  0  0  0  0  0  0  0  0  0  0
   -1.0219   -1.3453   -0.0007 C   0  0  0  0  0  0  0  0  0  0  0  0
    0.1448   -0.6617    0.6074 C   0  0  0  0  0  0  0  0  0  0  0  0
    1.0488    0.0795   -0.3393 C   0  0  0  0  0  0  0  0  0  0  0  0
    2.3039    0.2268    0.2445 O   0  0  0  0  0  0  0  0  0  0  0  0
   -1.7231    0.0825    1.5722 H   0  0  0  0  0  0  0  0  0  0  0  0
   -1.4221   -2.2042    0.6010 H   0  0  0  0  0  0  0  0  0  0  0  0
   -1.0980   -1.3939   -1.1018 H   0  0  0  0  0  0  0  0  0  0  0  0
    0.5511   -0.9807    1.5838 H   0  0  0  0  0  0  0  0  0  0  0  0
    1.0903   -0.4144   -1.3326 H   0  0  0  0  0  0  0  0  0  0  0  0
    2.9377   -0.3647   -0.2232 H   0  0  0  0  0  0  0  0  0  0  0  0
  1  2  2  0
  2  3  1  0
  3  4  2  0
  3  5  1  0
  5  6  1  0
  6  7  1  0
  7  8  1  0
  8  9  1  0
  8  2  1  0
  7  5  1  0
  5 10  1  0
  6 11  1  0
  6 12  1  0
  7 13  1  0
  8 14  1  0
  9 15  1  0
M  END
