
     RDKit          3D

 13 14  0  0  0  0  0  0  0  0999 V2000
    1.4508   -1.8413    0.3926 O   0  0  0  0  0  0  0  0  0  0  0  0
    1.0832   -0.7548    0.0285 C   0  0  0  0  0  0  0  0  0  0  0  0
    1.6968    0.5168   -0.4115 C   0  0  0  0  0  0  0  0  0  0  0  0
    0.4931    0.7891   -1.1068 O   0  0  0  0  0  0  0  0  0  0  0  0
   -0.1318   -0.0235   -0.2037 C   0  0  0  0  0  0  0  0  0  0  0  0
   -1.0847    0.4226    0.8067 C   0  0  0  0  0  0  0  0  0  0  0  0
   -1.4721   -0.5525   -0.3152 C   0  0  0  0  0  0  0  0  0  0  0  0
    1.7656    1.2473    0.4220 H   0  0  0  0  0  0  0  0  0  0  0  0
    2.5825    0.4303   -1.0603 H   0  0  0  0  0  0  0  0  0  0  0  0
   -1.4479    1.4631    0.7391 H   0  0  0  0  0  0  0  0  0  0  0  0
   -1.1219    0.0175    1.8369 H   0  0  0  0  0  0  0  0  0  0  0  0
   -1.7066   -1.5848    0.0168 H   0  0  0  0  0  0  0  0  0  0  0  0
   -2.1069   -0.1298   -1.1452 H   0  0  0  0  0  0  0  0  0  0  0  0
  1  2  2  0
  2  3  1  0
  3  4  1  0
  4  5  1  0
  5  6  1  0
  6  7  1  0
  5  2  1  0
  7  5  1  0
  3  8  1  0
  3  9  1  0
  6 10  1  0
  6 11  1  0
  7 12  1  0
  7 13  1  0
M  END
