
     RDKit          3D

 17 19  0  0  0  0  0  0  0  0999 V2000
    1.2712    0.4003   -2.2919 O   0  0  0  0  0  0  0  0  0  0  0  0
    0.7569    0.2245   -1.2191 C   0  0  0  0  0  0  0  0  0  0  0  0
   -0.7135    0.0144   -0.9413 C   0  0  0  0  0  0  0  0  0  0  0  0
   -0.9433    1.0834    0.0911 C   0  0  0  0  0  0  0  0  0  0  0  0
    0.3178    0.9361    0.9498 C   0  0  0  0  0  0  0  0  0  0  0  0
    0.1868   -0.1338    1.8137 O   0  0  0  0  0  0  0  0  0  0  0  0
    0.5405   -0.9841    0.7553 C   0  0  0  0  0  0  0  0  0  0  0  0
   -0.6406   -1.2949   -0.1782 C   0  0  0  0  0  0  0  0  0  0  0  0
    1.2966    0.1476    0.1474 C   0  0  0  0  0  0  0  0  0  0  0  0
   -1.3364    0.0239   -1.8035 H   0  0  0  0  0  0  0  0  0  0  0  0
   -1.0468    2.0916   -0.3234 H   0  0  0  0  0  0  0  0  0  0  0  0
   -1.8529    0.7693    0.6804 H   0  0  0  0  0  0  0  0  0  0  0  0
    0.6441    1.8890    1.3717 H   0  0  0  0  0  0  0  0  0  0  0  0
    1.1078   -1.8685    1.0625 H   0  0  0  0  0  0  0  0  0  0  0  0
   -0.3546   -2.1454   -0.8004 H   0  0  0  0  0  0  0  0  0  0  0  0
   -1.5747   -1.4054    0.3692 H   0  0  0  0  0  0  0  0  0  0  0  0
    2.3412    0.2521    0.3167 H   0  0  0  0  0  0  0  0  0  0  0  0
  1  2  2  0
  2  3  1  0
  3  4  1  0
  4  5  1  0
  5  6  1  0
  6  7  1  0
  7  8  1  0
  7  9  1  0
  9  2  1  0
  8  3  1  0
  9  5  1  0
  3 10  1  0
  4 11  1  0
  4 12  1  0
  5 13  1  0
  7 14  1  0
  8 15  1  0
  8 16  1  0
  9 17  1  0
M  END
