
     RDKit          3D

 17 19  0  0  0  0  0  0  0  0999 V2000
   -2.1173   -1.9271    0.6920 O   0  0  0  0  0  0  0  0  0  0  0  0
   -1.1900   -1.2437    0.1913 C   0  0  0  0  0  0  0  0  0  0  0  0
   -0.1215   -1.6583   -0.6359 O   0  0  0  0  0  0  0  0  0  0  0  0
    0.5565   -0.5536   -0.1981 C   0  0  0  0  0  0  0  0  0  0  0  0
    1.9219   -0.1933   -0.2960 C   0  0  0  0  0  0  0  0  0  0  0  0
    1.5053   -0.8382    0.9909 C   0  0  0  0  0  0  0  0  0  0  0  0
   -0.6559    0.1107    0.1029 C   0  0  0  0  0  0  0  0  0  0  0  0
   -0.9688    1.2480    0.9062 C   0  0  0  0  0  0  0  0  0  0  0  0
   -1.4137    1.1396   -0.5501 C   0  0  0  0  0  0  0  0  0  0  0  0
    2.2470    0.8384   -0.2130 H   0  0  0  0  0  0  0  0  0  0  0  0
    2.6137   -0.8347   -0.9100 H   0  0  0  0  0  0  0  0  0  0  0  0
    1.7766   -1.8919    1.1793 H   0  0  0  0  0  0  0  0  0  0  0  0
    1.3227   -0.2165    1.8986 H   0  0  0  0  0  0  0  0  0  0  0  0
   -1.7369    1.1676    1.6949 H   0  0  0  0  0  0  0  0  0  0  0  0
   -0.1839    2.0209    1.0763 H   0  0  0  0  0  0  0  0  0  0  0  0
   -2.5262    0.9749   -0.6572 H   0  0  0  0  0  0  0  0  0  0  0  0
   -1.0295    1.8573   -1.2813 H   0  0  0  0  0  0  0  0  0  0  0  0
  1  2  2  0
  2  3  1  0
  3  4  1  0
  4  5  1  0
  5  6  1  0
  4  7  1  0
  7  8  1  0
  8  9  1  0
  7  2  1  0
  6  4  1  0
  9  7  1  0
  5 10  1  0
  5 11  1  0
  6 12  1  0
  6 13  1  0
  8 14  1  0
  8 15  1  0
  9 16  1  0
  9 17  1  0
M  END
