
     RDKit          3D

 12 13  0  0  0  0  0  0  0  0999 V2000
   -1.6472    1.7196   -0.5023 O   0  0  0  0  0  0  0  0  0  0  0  0
   -0.7885    0.8464   -0.2778 C   0  0  0  0  0  0  0  0  0  0  0  0
   -0.9410   -0.6238   -0.0849 C   0  0  0  0  0  0  0  0  0  0  0  0
    0.2381   -0.8513    0.8148 C   0  0  0  0  0  0  0  0  0  0  0  0
    1.4700   -1.2057    0.6258 O   0  0  0  0  0  0  0  0  0  0  0  0
    1.2357   -0.2581   -0.2336 C   0  0  0  0  0  0  0  0  0  0  0  0
    0.6467    1.0883   -0.1461 C   0  0  0  0  0  0  0  0  0  0  0  0
    1.2248    2.1828    0.0046 O   0  0  0  0  0  0  0  0  0  0  0  0
   -0.7587   -1.1529   -1.0478 H   0  0  0  0  0  0  0  0  0  0  0  0
   -1.8965   -0.8673    0.3834 H   0  0  0  0  0  0  0  0  0  0  0  0
    0.0984   -0.2302    1.7547 H   0  0  0  0  0  0  0  0  0  0  0  0
    1.1182   -0.6476   -1.2910 H   0  0  0  0  0  0  0  0  0  0  0  0
  1  2  2  0
  2  3  1  0
  3  4  1  0
  4  5  1  0
  5  6  1  0
  6  7  1  0
  7  8  2  0
  7  2  1  0
  6  4  1  0
  3  9  1  0
  3 10  1  0
  4 11  1  0
  6 12  1  0
M  END
