
     RDKit          3D

 15 16  0  0  0  0  0  0  0  0999 V2000
   -2.4982    1.8089   -1.4636 O   0  0  0  0  0  0  0  0  0  0  0  0
   -1.7582    1.2089   -0.6279 C   0  0  0  0  0  0  0  0  0  0  0  0
   -2.2078    0.3329    0.3612 O   0  0  0  0  0  0  0  0  0  0  0  0
   -1.1671   -0.6124    0.6405 C   0  0  0  0  0  0  0  0  0  0  0  0
    0.0238    0.0014   -0.0062 C   0  0  0  0  0  0  0  0  0  0  0  0
    1.0024   -0.7560   -0.7933 C   0  0  0  0  0  0  0  0  0  0  0  0
    1.3383   -0.2465    0.5833 C   0  0  0  0  0  0  0  0  0  0  0  0
    2.2794    0.7545    0.7467 O   0  0  0  0  0  0  0  0  0  0  0  0
   -0.3768    1.2646   -0.4863 O   0  0  0  0  0  0  0  0  0  0  0  0
   -1.4031   -1.5547    0.1291 H   0  0  0  0  0  0  0  0  0  0  0  0
   -0.9898   -0.7069    1.7126 H   0  0  0  0  0  0  0  0  0  0  0  0
    1.5672   -0.2588   -1.6043 H   0  0  0  0  0  0  0  0  0  0  0  0
    0.7981   -1.8109   -0.9764 H   0  0  0  0  0  0  0  0  0  0  0  0
    1.4303   -1.0622    1.3400 H   0  0  0  0  0  0  0  0  0  0  0  0
    1.9615    1.6370    0.4445 H   0  0  0  0  0  0  0  0  0  0  0  0
  1  2  2  0
  2  3  1  0
  3  4  1  0
  4  5  1  0
  5  6  1  0
  6  7  1  0
  7  8  1  0
  5  9  1  0
  9  2  1  0
  7  5  1  0
  4 10  1  0
  4 11  1  0
  6 12  1  0
  6 13  1  0
  7 14  1  0
  8 15  1  0
M  END
