
     RDKit          3D

 17 18  0  0  0  0  0  0  0  0999 V2000
    3.2392   -1.1298   -0.5348 O   0  0  0  0  0  0  0  0  0  0  0  0
    2.2844   -0.5386   -0.0039 C   0  0  0  0  0  0  0  0  0  0  0  0
    1.6276    0.8143   -0.0224 C   0  0  0  0  0  0  0  0  0  0  0  0
    0.4485   -0.0049    0.2849 C   0  0  0  0  0  0  0  0  0  0  0  0
   -0.4188   -0.5098   -0.7888 C   0  0  0  0  0  0  0  0  0  0  0  0
   -1.6043   -0.3364    0.1719 C   0  0  0  0  0  0  0  0  0  0  0  0
   -2.6628    0.3179   -0.4014 O   0  0  0  0  0  0  0  0  0  0  0  0
   -0.6897    0.5607    1.0189 C   0  0  0  0  0  0  0  0  0  0  0  0
    1.2993   -0.9010    0.9383 O   0  0  0  0  0  0  0  0  0  0  0  0
    1.6818    1.3453   -0.9719 H   0  0  0  0  0  0  0  0  0  0  0  0
    1.9969    1.3718    0.8752 H   0  0  0  0  0  0  0  0  0  0  0  0
   -0.3223   -1.5837   -1.0506 H   0  0  0  0  0  0  0  0  0  0  0  0
   -0.5089    0.0787   -1.7205 H   0  0  0  0  0  0  0  0  0  0  0  0
   -1.8231   -1.2542    0.7371 H   0  0  0  0  0  0  0  0  0  0  0  0
   -2.9592   -0.2127   -1.1944 H   0  0  0  0  0  0  0  0  0  0  0  0
   -0.7447    0.3303    2.0910 H   0  0  0  0  0  0  0  0  0  0  0  0
   -0.8438    1.6521    0.8112 H   0  0  0  0  0  0  0  0  0  0  0  0
  1  2  2  0
  2  3  1  0
  3  4  1  0
  4  5  1  0
  5  6  1  0
  6  7  1  0
  6  8  1  0
  4  9  1  0
  9  2  1  0
  8  4  1  0
  3 10  1  0
  3 11  1  0
  5 12  1  0
  5 13  1  0
  6 14  1  0
  7 15  1  0
  8 16  1  0
  8 17  1  0
M  END
