
     RDKit          3D

 15 16  0  0  0  0  0  0  0  0999 V2000
    2.1436   -0.9889    1.6507 O   0  0  0  0  0  0  0  0  0  0  0  0
    1.3496   -0.3752    0.9127 C   0  0  0  0  0  0  0  0  0  0  0  0
    1.6740    0.6641   -0.0517 C   0  0  0  0  0  0  0  0  0  0  0  0
    0.5458    1.0728   -0.6466 C   0  0  0  0  0  0  0  0  0  0  0  0
   -0.6253    0.3485   -0.1369 C   0  0  0  0  0  0  0  0  0  0  0  0
   -1.7049    1.1246    0.1724 O   0  0  0  0  0  0  0  0  0  0  0  0
   -0.9953   -0.9116   -0.8810 C   0  0  0  0  0  0  0  0  0  0  0  0
   -0.4930   -1.7105    0.1365 O   0  0  0  0  0  0  0  0  0  0  0  0
   -0.1069   -0.5974    0.8817 C   0  0  0  0  0  0  0  0  0  0  0  0
    2.6870    1.0080   -0.2151 H   0  0  0  0  0  0  0  0  0  0  0  0
    0.5512    1.8467   -1.4053 H   0  0  0  0  0  0  0  0  0  0  0  0
   -1.9904    1.1304    1.0982 H   0  0  0  0  0  0  0  0  0  0  0  0
   -0.3580   -0.9884   -1.8053 H   0  0  0  0  0  0  0  0  0  0  0  0
   -2.0874   -1.0028   -1.0712 H   0  0  0  0  0  0  0  0  0  0  0  0
   -0.5899   -0.6202    1.8666 H   0  0  0  0  0  0  0  0  0  0  0  0
  1  2  2  0
  2  3  1  0
  3  4  2  0
  4  5  1  0
  5  6  1  0
  5  7  1  0
  7  8  1  0
  8  9  1  0
  9  2  1  0
  9  5  1  0
  3 10  1  0
  4 11  1  0
  6 12  1  0
  7 13  1  0
  7 14  1  0
  9 15  1  0
M  END
