
     RDKit          3D

 17 19  0  0  0  0  0  0  0  0999 V2000
    2.5458    1.6591    0.7559 O   0  0  0  0  0  0  0  0  0  0  0  0
    1.7831    0.8348    0.3320 C   0  0  0  0  0  0  0  0  0  0  0  0
    1.5667   -0.6499    0.3357 C   0  0  0  0  0  0  0  0  0  0  0  0
    0.5917   -0.5715   -0.7886 C   0  0  0  0  0  0  0  0  0  0  0  0
   -0.8012   -1.1145   -0.5990 C   0  0  0  0  0  0  0  0  0  0  0  0
   -1.5153   -0.1335    0.2720 C   0  0  0  0  0  0  0  0  0  0  0  0
   -0.7713    1.1713    0.1455 C   0  0  0  0  0  0  0  0  0  0  0  0
    0.5317    0.9109   -0.5054 C   0  0  0  0  0  0  0  0  0  0  0  0
    0.6745    0.4029   -1.7577 O   0  0  0  0  0  0  0  0  0  0  0  0
    2.4816   -1.2479    0.1514 H   0  0  0  0  0  0  0  0  0  0  0  0
    1.1026   -0.9146    1.3299 H   0  0  0  0  0  0  0  0  0  0  0  0
   -0.8190   -2.1542   -0.2279 H   0  0  0  0  0  0  0  0  0  0  0  0
   -1.2888   -1.1437   -1.6055 H   0  0  0  0  0  0  0  0  0  0  0  0
   -1.5503   -0.5085    1.3172 H   0  0  0  0  0  0  0  0  0  0  0  0
   -2.5896   -0.0218   -0.0520 H   0  0  0  0  0  0  0  0  0  0  0  0
   -0.5597    1.5145    1.2008 H   0  0  0  0  0  0  0  0  0  0  0  0
   -1.3824    1.9666   -0.3045 H   0  0  0  0  0  0  0  0  0  0  0  0
  1  2  2  0
  2  3  1  0
  3  4  1  0
  4  5  1  0
  5  6  1  0
  6  7  1  0
  7  8  1  0
  8  9  1  0
  8  2  1  0
  8  4  1  0
  9  4  1  0
  3 10  1  0
  3 11  1  0
  5 12  1  0
  5 13  1  0
  6 14  1  0
  6 15  1  0
  7 16  1  0
  7 17  1  0
M  END
