
     RDKit          3D

 16 17  0  0  0  0  0  0  0  0999 V2000
   -1.8371    2.0472    0.4032 O   0  0  0  0  0  0  0  0  0  0  0  0
   -1.2321    0.9998    0.3049 C   0  0  0  0  0  0  0  0  0  0  0  0
   -1.4960   -0.1608   -0.5915 C   0  0  0  0  0  0  0  0  0  0  0  0
   -0.3166   -1.0977   -0.4148 C   0  0  0  0  0  0  0  0  0  0  0  0
    0.7318   -0.2065    0.1286 C   0  0  0  0  0  0  0  0  0  0  0  0
    2.0727   -0.0869   -0.1805 C   0  0  0  0  0  0  0  0  0  0  0  0
    1.2197    0.6747   -0.9684 O   0  0  0  0  0  0  0  0  0  0  0  0
   -0.0317    0.6429    1.1090 C   0  0  0  0  0  0  0  0  0  0  0  0
   -1.5872    0.1534   -1.6530 H   0  0  0  0  0  0  0  0  0  0  0  0
   -2.4478   -0.6180   -0.2464 H   0  0  0  0  0  0  0  0  0  0  0  0
    0.0261   -1.5246   -1.3782 H   0  0  0  0  0  0  0  0  0  0  0  0
   -0.6319   -1.8859    0.2740 H   0  0  0  0  0  0  0  0  0  0  0  0
    2.7449    0.5097    0.4716 H   0  0  0  0  0  0  0  0  0  0  0  0
    2.6328   -0.9407   -0.6545 H   0  0  0  0  0  0  0  0  0  0  0  0
   -0.3790   -0.0210    1.9352 H   0  0  0  0  0  0  0  0  0  0  0  0
    0.5314    1.5145    1.4608 H   0  0  0  0  0  0  0  0  0  0  0  0
  1  2  2  0
  2  3  1  0
  3  4  1  0
  4  5  1  0
  5  6  1  0
  6  7  1  0
  5  8  1  0
  8  2  1  0
  7  5  1  0
  3  9  1  0
  3 10  1  0
  4 11  1  0
  4 12  1  0
  6 13  1  0
  6 14  1  0
  8 15  1  0
  8 16  1  0
M  END
