
     RDKit          3D

 17 19  0  0  0  0  0  0  0  0999 V2000
   -0.5573    2.8755    0.0248 O   0  0  0  0  0  0  0  0  0  0  0  0
   -0.1307    1.7163    0.0338 C   0  0  0  0  0  0  0  0  0  0  0  0
    1.0834    1.4419    0.6079 O   0  0  0  0  0  0  0  0  0  0  0  0
    1.7888    0.2729    0.3496 C   0  0  0  0  0  0  0  0  0  0  0  0
    0.9614   -0.9018    0.0144 C   0  0  0  0  0  0  0  0  0  0  0  0
   -0.3877   -1.1828    0.4584 C   0  0  0  0  0  0  0  0  0  0  0  0
   -1.5138   -0.2096    0.5374 C   0  0  0  0  0  0  0  0  0  0  0  0
   -0.9150    0.6349   -0.5655 C   0  0  0  0  0  0  0  0  0  0  0  0
   -0.0927   -0.5643   -0.9491 C   0  0  0  0  0  0  0  0  0  0  0  0
    2.4816    0.4695   -0.5206 H   0  0  0  0  0  0  0  0  0  0  0  0
    2.4677    0.0588    1.2042 H   0  0  0  0  0  0  0  0  0  0  0  0
    1.5763   -1.7955   -0.2837 H   0  0  0  0  0  0  0  0  0  0  0  0
   -0.7349   -2.2407    0.4612 H   0  0  0  0  0  0  0  0  0  0  0  0
   -2.4924   -0.5836    0.2279 H   0  0  0  0  0  0  0  0  0  0  0  0
   -1.5511    0.2790    1.5348 H   0  0  0  0  0  0  0  0  0  0  0  0
   -1.6085    0.9434   -1.3610 H   0  0  0  0  0  0  0  0  0  0  0  0
   -0.3750   -1.2140   -1.7745 H   0  0  0  0  0  0  0  0  0  0  0  0
  1  2  2  0
  2  3  1  0
  3  4  1  0
  4  5  1  0
  5  6  1  0
  6  7  1  0
  7  8  1  0
  8  9  1  0
  8  2  1  0
  9  5  1  0
  9  6  1  0
  4 10  1  0
  4 11  1  0
  5 12  1  0
  6 13  1  0
  7 14  1  0
  7 15  1  0
  8 16  1  0
  9 17  1  0
M  END
