
     RDKit          3D

 19 20  0  0  0  0  0  0  0  0999 V2000
   -0.4036   -1.9225    1.5718 O   0  0  0  0  0  0  0  0  0  0  0  0
   -0.6182   -0.9847    0.8338 C   0  0  0  0  0  0  0  0  0  0  0  0
   -1.9514   -0.4629    0.4764 C   0  0  0  0  0  0  0  0  0  0  0  0
   -1.7124    0.5937   -0.5783 C   0  0  0  0  0  0  0  0  0  0  0  0
   -0.2923    0.4180   -1.0427 C   0  0  0  0  0  0  0  0  0  0  0  0
    0.3968   -0.1890    0.1552 C   0  0  0  0  0  0  0  0  0  0  0  0
    1.3984    0.6327    0.8652 C   0  0  0  0  0  0  0  0  0  0  0  0
    1.8058   -0.5756    0.1304 C   0  0  0  0  0  0  0  0  0  0  0  0
    2.4473   -0.4966   -1.1040 O   0  0  0  0  0  0  0  0  0  0  0  0
   -2.3814   -0.0154    1.4121 H   0  0  0  0  0  0  0  0  0  0  0  0
   -2.6287   -1.2223    0.0488 H   0  0  0  0  0  0  0  0  0  0  0  0
   -2.3638    0.4146   -1.4789 H   0  0  0  0  0  0  0  0  0  0  0  0
   -1.9020    1.5744   -0.1162 H   0  0  0  0  0  0  0  0  0  0  0  0
    0.1680    1.4070   -1.2694 H   0  0  0  0  0  0  0  0  0  0  0  0
   -0.2019   -0.2894   -1.8758 H   0  0  0  0  0  0  0  0  0  0  0  0
    1.4529    0.6618    1.9686 H   0  0  0  0  0  0  0  0  0  0  0  0
    1.6437    1.6079    0.3944 H   0  0  0  0  0  0  0  0  0  0  0  0
    2.1004   -1.4497    0.7773 H   0  0  0  0  0  0  0  0  0  0  0  0
    3.0426    0.2979   -1.1689 H   0  0  0  0  0  0  0  0  0  0  0  0
  1  2  2  0
  2  3  1  0
  3  4  1  0
  4  5  1  0
  5  6  1  0
  6  7  1  0
  7  8  1  0
  8  9  1  0
  6  2  1  0
  8  6  1  0
  3 10  1  0
  3 11  1  0
  4 12  1  0
  4 13  1  0
  5 14  1  0
  5 15  1  0
  7 16  1  0
  7 17  1  0
  8 18  1  0
  9 19  1  0
M  END
