
     RDKit          3D

 19 21  0  0  0  0  0  0  0  0999 V2000
    1.2601    2.4899    0.8269 O   0  0  0  0  0  0  0  0  0  0  0  0
    1.1316    1.3312    0.4943 C   0  0  0  0  0  0  0  0  0  0  0  0
    1.8689    0.4641   -0.4593 C   0  0  0  0  0  0  0  0  0  0  0  0
    0.6930   -0.5131   -0.3173 C   0  0  0  0  0  0  0  0  0  0  0  0
   -0.4037   -0.3455   -1.2842 C   0  0  0  0  0  0  0  0  0  0  0  0
   -1.6745   -0.4515   -0.4334 C   0  0  0  0  0  0  0  0  0  0  0  0
   -1.2882    0.4844    0.6964 C   0  0  0  0  0  0  0  0  0  0  0  0
    0.1792    0.2800    0.8995 C   0  0  0  0  0  0  0  0  0  0  0  0
    0.5949   -1.1388    0.9995 C   0  0  0  0  0  0  0  0  0  0  0  0
    2.7610    0.0388    0.0539 H   0  0  0  0  0  0  0  0  0  0  0  0
    2.0069    0.8415   -1.4691 H   0  0  0  0  0  0  0  0  0  0  0  0
   -0.4185   -1.0198   -2.1406 H   0  0  0  0  0  0  0  0  0  0  0  0
   -0.3961    0.7255   -1.6388 H   0  0  0  0  0  0  0  0  0  0  0  0
   -2.5572   -0.0860   -0.9867 H   0  0  0  0  0  0  0  0  0  0  0  0
   -1.7591   -1.4741   -0.0593 H   0  0  0  0  0  0  0  0  0  0  0  0
   -1.8019    0.0769    1.6127 H   0  0  0  0  0  0  0  0  0  0  0  0
   -1.5885    1.5203    0.5273 H   0  0  0  0  0  0  0  0  0  0  0  0
    1.5457   -1.3166    1.5344 H   0  0  0  0  0  0  0  0  0  0  0  0
   -0.1534   -1.9072    1.1437 H   0  0  0  0  0  0  0  0  0  0  0  0
  1  2  2  0
  2  3  1  0
  3  4  1  0
  4  5  1  0
  5  6  1  0
  6  7  1  0
  7  8  1  0
  8  9  1  0
  8  2  1  0
  8  4  1  0
  9  4  1  0
  3 10  1  0
  3 11  1  0
  5 12  1  0
  5 13  1  0
  6 14  1  0
  6 15  1  0
  7 16  1  0
  7 17  1  0
  9 18  1  0
  9 19  1  0
M  END
