
     RDKit          3D

 15 16  0  0  0  0  0  0  0  0999 V2000
   -1.6782   -1.7720   -1.0045 O   0  0  0  0  0  0  0  0  0  0  0  0
   -0.9411   -1.0475   -0.4409 C   0  0  0  0  0  0  0  0  0  0  0  0
   -1.2081    0.2174    0.2837 C   0  0  0  0  0  0  0  0  0  0  0  0
   -1.3983    1.2816   -0.6193 O   0  0  0  0  0  0  0  0  0  0  0  0
    0.1915    0.3288    0.8936 C   0  0  0  0  0  0  0  0  0  0  0  0
    0.5943   -1.0055    1.1431 O   0  0  0  0  0  0  0  0  0  0  0  0
    0.5212   -1.1500   -0.2593 C   0  0  0  0  0  0  0  0  0  0  0  0
    1.0513    0.2651   -0.3169 C   0  0  0  0  0  0  0  0  0  0  0  0
    2.3980    0.3092   -0.0833 O   0  0  0  0  0  0  0  0  0  0  0  0
   -1.9767    0.1542    1.0441 H   0  0  0  0  0  0  0  0  0  0  0  0
   -2.3360    1.3487   -0.8616 H   0  0  0  0  0  0  0  0  0  0  0  0
    0.3507    1.0481    1.6571 H   0  0  0  0  0  0  0  0  0  0  0  0
    1.0686   -1.9331   -0.7111 H   0  0  0  0  0  0  0  0  0  0  0  0
    0.6793    0.8492   -1.1822 H   0  0  0  0  0  0  0  0  0  0  0  0
    2.6836    1.1057    0.4576 H   0  0  0  0  0  0  0  0  0  0  0  0
  1  2  2  0
  2  3  1  0
  3  4  1  0
  3  5  1  0
  5  6  1  0
  6  7  1  0
  7  8  1  0
  8  9  1  0
  7  2  1  0
  8  5  1  0
  3 10  1  0
  4 11  1  0
  5 12  1  0
  7 13  1  0
  8 14  1  0
  9 15  1  0
M  END
