
     RDKit          3D

 17 18  0  0  0  0  0  0  0  0999 V2000
   -2.9873   -0.6914    0.8170 O   0  0  0  0  0  0  0  0  0  0  0  0
   -1.9002   -0.3960    0.4090 C   0  0  0  0  0  0  0  0  0  0  0  0
   -0.9289   -1.0402   -0.5154 C   0  0  0  0  0  0  0  0  0  0  0  0
    0.1412   -0.2685    0.1849 C   0  0  0  0  0  0  0  0  0  0  0  0
    1.3017    0.1951   -0.5743 C   0  0  0  0  0  0  0  0  0  0  0  0
    2.0152   -0.3341    0.6554 C   0  0  0  0  0  0  0  0  0  0  0  0
    0.8425   -0.8740    1.1717 O   0  0  0  0  0  0  0  0  0  0  0  0
   -0.9231    0.7147    0.5635 C   0  0  0  0  0  0  0  0  0  0  0  0
   -1.1436    1.6469   -0.4748 O   0  0  0  0  0  0  0  0  0  0  0  0
   -1.0271   -0.6530   -1.5705 H   0  0  0  0  0  0  0  0  0  0  0  0
   -0.8739   -2.1400   -0.4663 H   0  0  0  0  0  0  0  0  0  0  0  0
    1.4788   -0.3912   -1.4933 H   0  0  0  0  0  0  0  0  0  0  0  0
    1.3343    1.2890   -0.6942 H   0  0  0  0  0  0  0  0  0  0  0  0
    2.4474    0.4957    1.2324 H   0  0  0  0  0  0  0  0  0  0  0  0
    2.7345   -1.1250    0.3478 H   0  0  0  0  0  0  0  0  0  0  0  0
   -0.8512    1.1654    1.5579 H   0  0  0  0  0  0  0  0  0  0  0  0
   -1.6605    2.4066   -0.1645 H   0  0  0  0  0  0  0  0  0  0  0  0
  1  2  2  0
  2  3  1  0
  3  4  1  0
  4  5  1  0
  5  6  1  0
  6  7  1  0
  4  8  1  0
  8  9  1  0
  8  2  1  0
  7  4  1  0
  3 10  1  0
  3 11  1  0
  5 12  1  0
  5 13  1  0
  6 14  1  0
  6 15  1  0
  8 16  1  0
  9 17  1  0
M  END
