
     RDKit          3D

 19 20  0  0  0  0  0  0  0  0999 V2000
    0.0125   -2.1552    1.1672 O   0  0  0  0  0  0  0  0  0  0  0  0
   -0.1936   -1.3256    0.3170 C   0  0  0  0  0  0  0  0  0  0  0  0
   -1.4400   -1.1474   -0.4592 C   0  0  0  0  0  0  0  0  0  0  0  0
   -1.5236    0.3404   -0.6267 C   0  0  0  0  0  0  0  0  0  0  0  0
   -1.3227    1.1493    0.6085 C   0  0  0  0  0  0  0  0  0  0  0  0
   -0.1707    0.9136   -0.2901 C   0  0  0  0  0  0  0  0  0  0  0  0
    0.7142   -0.2721   -0.1849 C   0  0  0  0  0  0  0  0  0  0  0  0
    1.9239   -0.0702    0.6830 C   0  0  0  0  0  0  0  0  0  0  0  0
    2.6855    0.9499    0.0874 O   0  0  0  0  0  0  0  0  0  0  0  0
   -2.3285   -1.5921    0.0116 H   0  0  0  0  0  0  0  0  0  0  0  0
   -1.2673   -1.6560   -1.4524 H   0  0  0  0  0  0  0  0  0  0  0  0
   -2.0398    0.7538   -1.5030 H   0  0  0  0  0  0  0  0  0  0  0  0
   -1.4105    0.6107    1.5817 H   0  0  0  0  0  0  0  0  0  0  0  0
   -1.6712    2.2027    0.6653 H   0  0  0  0  0  0  0  0  0  0  0  0
    0.2087    1.7358   -0.9221 H   0  0  0  0  0  0  0  0  0  0  0  0
    1.0042   -0.5720   -1.2197 H   0  0  0  0  0  0  0  0  0  0  0  0
    1.6941    0.2529    1.6970 H   0  0  0  0  0  0  0  0  0  0  0  0
    2.5522   -0.9779    0.7521 H   0  0  0  0  0  0  0  0  0  0  0  0
    2.5726    0.8594   -0.9126 H   0  0  0  0  0  0  0  0  0  0  0  0
  1  2  2  0
  2  3  1  0
  3  4  1  0
  4  5  1  0
  5  6  1  0
  6  7  1  0
  7  8  1  0
  8  9  1  0
  7  2  1  0
  6  4  1  0
  3 10  1  0
  3 11  1  0
  4 12  1  0
  5 13  1  0
  5 14  1  0
  6 15  1  0
  7 16  1  0
  8 17  1  0
  8 18  1  0
  9 19  1  0
M  END
