
     RDKit          3D

 17 18  0  0  0  0  0  0  0  0999 V2000
   -2.7761    0.0160   -0.7475 O   0  0  0  0  0  0  0  0  0  0  0  0
   -1.7062   -0.1054   -0.2302 C   0  0  0  0  0  0  0  0  0  0  0  0
   -0.9014   -1.3420   -0.1235 C   0  0  0  0  0  0  0  0  0  0  0  0
    0.3330   -0.7934    0.5821 C   0  0  0  0  0  0  0  0  0  0  0  0
   -0.2694    0.1635    1.4320 O   0  0  0  0  0  0  0  0  0  0  0  0
   -0.9098    0.9447    0.4361 C   0  0  0  0  0  0  0  0  0  0  0  0
    0.2936    1.3514   -0.3836 C   0  0  0  0  0  0  0  0  0  0  0  0
    1.1012    0.0638   -0.3830 C   0  0  0  0  0  0  0  0  0  0  0  0
    2.3825    0.2859    0.1183 O   0  0  0  0  0  0  0  0  0  0  0  0
   -0.6181   -1.7604   -1.1062 H   0  0  0  0  0  0  0  0  0  0  0  0
   -1.3367   -2.1015    0.5347 H   0  0  0  0  0  0  0  0  0  0  0  0
    0.9072   -1.5375    1.1101 H   0  0  0  0  0  0  0  0  0  0  0  0
   -1.4749    1.7672    0.8487 H   0  0  0  0  0  0  0  0  0  0  0  0
    0.8204    2.1349    0.1784 H   0  0  0  0  0  0  0  0  0  0  0  0
    0.0301    1.6773   -1.3969 H   0  0  0  0  0  0  0  0  0  0  0  0
    1.1462   -0.3788   -1.3865 H   0  0  0  0  0  0  0  0  0  0  0  0
    2.9784   -0.3855   -0.2986 H   0  0  0  0  0  0  0  0  0  0  0  0
  1  2  2  0
  2  3  1  0
  3  4  1  0
  4  5  1  0
  5  6  1  0
  6  7  1  0
  7  8  1  0
  8  9  1  0
  6  2  1  0
  8  4  1  0
  3 10  1  0
  3 11  1  0
  4 12  1  0
  6 13  1  0
  7 14  1  0
  7 15  1  0
  8 16  1  0
  9 17  1  0
M  END
