
     RDKit          3D

 16 17  0  0  0  0  0  0  0  0999 V2000
    0.5709    1.0877    2.3496 O   0  0  0  0  0  0  0  0  0  0  0  0
    0.5791    0.6374    1.2215 C   0  0  0  0  0  0  0  0  0  0  0  0
    1.6180    0.5208    0.1619 C   0  0  0  0  0  0  0  0  0  0  0  0
    0.8013   -0.6696   -0.3687 C   0  0  0  0  0  0  0  0  0  0  0  0
    0.6802   -0.7101   -1.7363 O   0  0  0  0  0  0  0  0  0  0  0  0
   -0.3437   -0.0031    0.3090 C   0  0  0  0  0  0  0  0  0  0  0  0
   -1.4378    0.6662   -0.3923 C   0  0  0  0  0  0  0  0  0  0  0  0
   -1.6368   -0.5393    0.5621 C   0  0  0  0  0  0  0  0  0  0  0  0
    1.5575    1.3818   -0.5649 H   0  0  0  0  0  0  0  0  0  0  0  0
    2.6245    0.2741    0.4934 H   0  0  0  0  0  0  0  0  0  0  0  0
    1.1841   -1.6063    0.0812 H   0  0  0  0  0  0  0  0  0  0  0  0
    1.3230   -1.4036   -2.0849 H   0  0  0  0  0  0  0  0  0  0  0  0
   -1.7417    1.6543   -0.0322 H   0  0  0  0  0  0  0  0  0  0  0  0
   -1.5771    0.4682   -1.4769 H   0  0  0  0  0  0  0  0  0  0  0  0
   -1.9640   -1.4697    0.0394 H   0  0  0  0  0  0  0  0  0  0  0  0
   -2.2373   -0.2889    1.4381 H   0  0  0  0  0  0  0  0  0  0  0  0
  1  2  2  0
  2  3  1  0
  3  4  1  0
  4  5  1  0
  4  6  1  0
  6  7  1  0
  7  8  1  0
  6  2  1  0
  8  6  1  0
  3  9  1  0
  3 10  1  0
  4 11  1  0
  5 12  1  0
  7 13  1  0
  7 14  1  0
  8 15  1  0
  8 16  1  0
M  END
