
     RDKit          3D

 17 18  0  0  0  0  0  0  0  0999 V2000
    2.6634   -0.9245   -1.0086 O   0  0  0  0  0  0  0  0  0  0  0  0
    1.6855   -0.5204   -0.3955 C   0  0  0  0  0  0  0  0  0  0  0  0
    1.0584   -0.8781    0.8882 C   0  0  0  0  0  0  0  0  0  0  0  0
   -0.0530    0.0863    0.6230 C   0  0  0  0  0  0  0  0  0  0  0  0
   -1.4624   -0.4114    0.4431 C   0  0  0  0  0  0  0  0  0  0  0  0
   -1.5237   -1.2856   -0.6408 O   0  0  0  0  0  0  0  0  0  0  0  0
    0.3231    1.4829    0.4221 C   0  0  0  0  0  0  0  0  0  0  0  0
    0.6683    0.5212   -0.6551 C   0  0  0  0  0  0  0  0  0  0  0  0
   -0.0120    0.4727   -1.8446 O   0  0  0  0  0  0  0  0  0  0  0  0
    0.7743   -1.9384    1.0110 H   0  0  0  0  0  0  0  0  0  0  0  0
    1.6968   -0.4798    1.7290 H   0  0  0  0  0  0  0  0  0  0  0  0
   -2.1212    0.4448    0.2349 H   0  0  0  0  0  0  0  0  0  0  0  0
   -1.8093   -0.9283    1.3584 H   0  0  0  0  0  0  0  0  0  0  0  0
   -2.2711   -1.0457   -1.2329 H   0  0  0  0  0  0  0  0  0  0  0  0
   -0.4678    2.2128    0.2268 H   0  0  0  0  0  0  0  0  0  0  0  0
    1.1976    1.8734    1.0222 H   0  0  0  0  0  0  0  0  0  0  0  0
   -0.3468    1.3180   -2.1812 H   0  0  0  0  0  0  0  0  0  0  0  0
  1  2  2  0
  2  3  1  0
  3  4  1  0
  4  5  1  0
  5  6  1  0
  4  7  1  0
  7  8  1  0
  8  9  1  0
  8  2  1  0
  8  4  1  0
  3 10  1  0
  3 11  1  0
  5 12  1  0
  5 13  1  0
  6 14  1  0
  7 15  1  0
  7 16  1  0
  9 17  1  0
M  END
