
     RDKit          3D

 15 16  0  0  0  0  0  0  0  0999 V2000
    0.1085   -2.7917    0.2786 O   0  0  0  0  0  0  0  0  0  0  0  0
    0.0391   -1.5408    0.0026 C   0  0  0  0  0  0  0  0  0  0  0  0
    1.3844   -0.9757   -0.1332 C   0  0  0  0  0  0  0  0  0  0  0  0
    1.6910    0.3000   -0.0657 C   0  0  0  0  0  0  0  0  0  0  0  0
    0.8344    1.4352    0.1490 C   0  0  0  0  0  0  0  0  0  0  0  0
   -0.4970    1.4255    0.2411 C   0  0  0  0  0  0  0  0  0  0  0  0
   -1.5189    0.4090    0.1744 C   0  0  0  0  0  0  0  0  0  0  0  0
   -1.5800   -0.1169   -1.2366 O   0  0  0  0  0  0  0  0  0  0  0  0
   -1.2779   -0.9216   -0.1237 C   0  0  0  0  0  0  0  0  0  0  0  0
    2.2133   -1.6476   -0.3044 H   0  0  0  0  0  0  0  0  0  0  0  0
    2.7608    0.5137   -0.1939 H   0  0  0  0  0  0  0  0  0  0  0  0
    1.3501    2.3812    0.2417 H   0  0  0  0  0  0  0  0  0  0  0  0
   -0.8469    2.4597    0.4060 H   0  0  0  0  0  0  0  0  0  0  0  0
   -2.5417    0.7316    0.5185 H   0  0  0  0  0  0  0  0  0  0  0  0
   -2.1191   -1.6617    0.0455 H   0  0  0  0  0  0  0  0  0  0  0  0
  1  2  2  0
  2  3  1  0
  3  4  2  0
  4  5  1  0
  5  6  2  0
  6  7  1  0
  7  8  1  0
  8  9  1  0
  9  2  1  0
  9  7  1  0
  3 10  1  0
  4 11  1  0
  5 12  1  0
  6 13  1  0
  7 14  1  0
  9 15  1  0
M  END
