
     RDKit          3D

 15 16  0  0  0  0  0  0  0  0999 V2000
   -2.2484    2.1476    0.2034 O   0  0  0  0  0  0  0  0  0  0  0  0
   -1.4287    1.2226    0.1725 C   0  0  0  0  0  0  0  0  0  0  0  0
   -1.6924   -0.0563   -0.5673 C   0  0  0  0  0  0  0  0  0  0  0  0
   -0.4606   -0.3506   -1.1892 O   0  0  0  0  0  0  0  0  0  0  0  0
    0.3664   -0.8821   -0.2283 C   0  0  0  0  0  0  0  0  0  0  0  0
    1.6429   -0.2431    0.1580 C   0  0  0  0  0  0  0  0  0  0  0  0
    2.1514    0.7864   -0.6075 O   0  0  0  0  0  0  0  0  0  0  0  0
    0.4503   -0.0031    0.9895 C   0  0  0  0  0  0  0  0  0  0  0  0
   -0.1870    1.2506    0.8055 O   0  0  0  0  0  0  0  0  0  0  0  0
   -1.8474   -0.8217    0.2393 H   0  0  0  0  0  0  0  0  0  0  0  0
   -2.5171    0.0196   -1.2690 H   0  0  0  0  0  0  0  0  0  0  0  0
    0.2357   -1.9932   -0.0913 H   0  0  0  0  0  0  0  0  0  0  0  0
    2.3909   -0.9596    0.6017 H   0  0  0  0  0  0  0  0  0  0  0  0
    2.8851    0.4197   -1.1549 H   0  0  0  0  0  0  0  0  0  0  0  0
    0.2590   -0.5368    1.9376 H   0  0  0  0  0  0  0  0  0  0  0  0
  1  2  2  0
  2  3  1  0
  3  4  1  0
  4  5  1  0
  5  6  1  0
  6  7  1  0
  6  8  1  0
  8  9  1  0
  9  2  1  0
  8  5  1  0
  3 10  1  0
  3 11  1  0
  5 12  1  0
  6 13  1  0
  7 14  1  0
  8 15  1  0
M  END
