
     RDKit          3D

 17 18  0  0  0  0  0  0  0  0999 V2000
   -1.5408   -1.5217   -1.9579 O   0  0  0  0  0  0  0  0  0  0  0  0
   -1.3544   -1.0155   -0.8758 C   0  0  0  0  0  0  0  0  0  0  0  0
   -2.0371   -0.1302    0.1123 C   0  0  0  0  0  0  0  0  0  0  0  0
   -0.6394    0.2610    0.6094 C   0  0  0  0  0  0  0  0  0  0  0  0
   -0.1301    1.3439   -0.0438 O   0  0  0  0  0  0  0  0  0  0  0  0
    1.2235    1.2853   -0.2966 C   0  0  0  0  0  0  0  0  0  0  0  0
    1.7802   -0.0344   -0.5935 C   0  0  0  0  0  0  0  0  0  0  0  0
    0.9734   -1.1150   -0.5599 O   0  0  0  0  0  0  0  0  0  0  0  0
   -0.1958   -1.0591    0.0842 C   0  0  0  0  0  0  0  0  0  0  0  0
   -2.5526   -0.7577    0.8599 H   0  0  0  0  0  0  0  0  0  0  0  0
   -2.6128    0.7045   -0.3163 H   0  0  0  0  0  0  0  0  0  0  0  0
   -0.6604    0.3383    1.7236 H   0  0  0  0  0  0  0  0  0  0  0  0
    1.4212    2.0323   -1.1217 H   0  0  0  0  0  0  0  0  0  0  0  0
    1.7304    1.7530    0.5995 H   0  0  0  0  0  0  0  0  0  0  0  0
    2.2517   -0.0031   -1.6214 H   0  0  0  0  0  0  0  0  0  0  0  0
    2.6613   -0.2349    0.0863 H   0  0  0  0  0  0  0  0  0  0  0  0
   -0.3183   -1.8468    0.8732 H   0  0  0  0  0  0  0  0  0  0  0  0
  1  2  2  0
  2  3  1  0
  3  4  1  0
  4  5  1  0
  5  6  1  0
  6  7  1  0
  7  8  1  0
  8  9  1  0
  9  2  1  0
  9  4  1  0
  3 10  1  0
  3 11  1  0
  4 12  1  0
  6 13  1  0
  6 14  1  0
  7 15  1  0
  7 16  1  0
  9 17  1  0
M  END
