
     RDKit          3D

 19 20  0  0  0  0  0  0  0  0999 V2000
    3.0711    0.6612    0.0095 O   0  0  0  0  0  0  0  0  0  0  0  0
    1.9088    0.3870   -0.2385 C   0  0  0  0  0  0  0  0  0  0  0  0
    1.6399   -0.9266   -0.8838 C   0  0  0  0  0  0  0  0  0  0  0  0
    0.3054   -1.2422   -0.9020 O   0  0  0  0  0  0  0  0  0  0  0  0
   -0.3927   -0.9439    0.2277 C   0  0  0  0  0  0  0  0  0  0  0  0
   -1.8691   -0.7465   -0.0907 C   0  0  0  0  0  0  0  0  0  0  0  0
   -1.6477    0.7489    0.0611 C   0  0  0  0  0  0  0  0  0  0  0  0
   -0.3190    0.4683    0.6857 C   0  0  0  0  0  0  0  0  0  0  0  0
    0.7730    1.2758    0.0631 C   0  0  0  0  0  0  0  0  0  0  0  0
    2.1852   -1.7628   -0.3952 H   0  0  0  0  0  0  0  0  0  0  0  0
    2.0125   -0.8234   -1.9454 H   0  0  0  0  0  0  0  0  0  0  0  0
   -0.3033   -1.7120    1.0246 H   0  0  0  0  0  0  0  0  0  0  0  0
   -2.1481   -1.0814   -1.0949 H   0  0  0  0  0  0  0  0  0  0  0  0
   -2.5628   -1.1666    0.6711 H   0  0  0  0  0  0  0  0  0  0  0  0
   -1.5830    1.2096   -0.9323 H   0  0  0  0  0  0  0  0  0  0  0  0
   -2.3419    1.2186    0.7783 H   0  0  0  0  0  0  0  0  0  0  0  0
   -0.2646    0.5283    1.7900 H   0  0  0  0  0  0  0  0  0  0  0  0
    1.1394    2.0755    0.7659 H   0  0  0  0  0  0  0  0  0  0  0  0
    0.3970    1.8324   -0.8247 H   0  0  0  0  0  0  0  0  0  0  0  0
  1  2  2  0
  2  3  1  0
  3  4  1  0
  4  5  1  0
  5  6  1  0
  6  7  1  0
  7  8  1  0
  8  9  1  0
  9  2  1  0
  8  5  1  0
  3 10  1  0
  3 11  1  0
  5 12  1  0
  6 13  1  0
  6 14  1  0
  7 15  1  0
  7 16  1  0
  8 17  1  0
  9 18  1  0
  9 19  1  0
M  END
