
     RDKit          3D

 17 18  0  0  0  0  0  0  0  0999 V2000
   -2.6426    0.9669   -1.5168 O   0  0  0  0  0  0  0  0  0  0  0  0
   -1.8451    0.4460   -0.7267 C   0  0  0  0  0  0  0  0  0  0  0  0
   -0.5048    1.0072   -0.5336 C   0  0  0  0  0  0  0  0  0  0  0  0
    0.4422    0.0491    0.1425 C   0  0  0  0  0  0  0  0  0  0  0  0
    1.7239   -0.3332   -0.4382 C   0  0  0  0  0  0  0  0  0  0  0  0
    1.7143    0.7340    0.6398 C   0  0  0  0  0  0  0  0  0  0  0  0
   -0.1497   -0.7550    1.0793 O   0  0  0  0  0  0  0  0  0  0  0  0
   -1.2567   -1.4328    0.6674 C   0  0  0  0  0  0  0  0  0  0  0  0
   -2.2074   -0.6672   -0.0193 O   0  0  0  0  0  0  0  0  0  0  0  0
   -0.0189    1.3575   -1.4659 H   0  0  0  0  0  0  0  0  0  0  0  0
   -0.6173    1.8856    0.1673 H   0  0  0  0  0  0  0  0  0  0  0  0
    2.1630   -1.2936   -0.1220 H   0  0  0  0  0  0  0  0  0  0  0  0
    1.9724   -0.0358   -1.4714 H   0  0  0  0  0  0  0  0  0  0  0  0
    2.0923    0.4947    1.6403 H   0  0  0  0  0  0  0  0  0  0  0  0
    1.9564    1.7377    0.2782 H   0  0  0  0  0  0  0  0  0  0  0  0
   -1.0483   -2.3523    0.0778 H   0  0  0  0  0  0  0  0  0  0  0  0
   -1.7739   -1.8087    1.6012 H   0  0  0  0  0  0  0  0  0  0  0  0
  1  2  2  0
  2  3  1  0
  3  4  1  0
  4  5  1  0
  5  6  1  0
  4  7  1  0
  7  8  1  0
  8  9  1  0
  9  2  1  0
  6  4  1  0
  3 10  1  0
  3 11  1  0
  5 12  1  0
  5 13  1  0
  6 14  1  0
  6 15  1  0
  8 16  1  0
  8 17  1  0
M  END
