
     RDKit          3D

 17 19  0  0  0  0  0  0  0  0999 V2000
   -2.6120   -1.3811   -1.1263 O   0  0  0  0  0  0  0  0  0  0  0  0
   -1.9217   -0.5476   -0.5898 C   0  0  0  0  0  0  0  0  0  0  0  0
   -1.9416    0.3441    0.6392 C   0  0  0  0  0  0  0  0  0  0  0  0
   -0.5380   -0.2603    0.7790 C   0  0  0  0  0  0  0  0  0  0  0  0
   -0.6112    0.1651   -0.7532 C   0  0  0  0  0  0  0  0  0  0  0  0
    0.5900   -0.0176   -0.0389 C   0  0  0  0  0  0  0  0  0  0  0  0
    1.7235   -0.8953   -0.2959 C   0  0  0  0  0  0  0  0  0  0  0  0
    2.4143    0.2145   -0.8360 O   0  0  0  0  0  0  0  0  0  0  0  0
    1.6290    1.0042    0.0398 C   0  0  0  0  0  0  0  0  0  0  0  0
   -1.9474    1.4154    0.3995 H   0  0  0  0  0  0  0  0  0  0  0  0
   -2.6589   -0.0309    1.3577 H   0  0  0  0  0  0  0  0  0  0  0  0
   -0.7037   -1.3766    0.9388 H   0  0  0  0  0  0  0  0  0  0  0  0
   -0.8772    1.2653   -0.8927 H   0  0  0  0  0  0  0  0  0  0  0  0
    1.6288   -1.7509   -0.9605 H   0  0  0  0  0  0  0  0  0  0  0  0
    2.2627   -1.1692    0.6575 H   0  0  0  0  0  0  0  0  0  0  0  0
    1.4130    2.0190   -0.3471 H   0  0  0  0  0  0  0  0  0  0  0  0
    2.1505    1.0020    1.0288 H   0  0  0  0  0  0  0  0  0  0  0  0
  1  2  2  0
  2  3  1  0
  3  4  1  0
  4  5  1  0
  5  6  1  0
  6  7  1  0
  7  8  1  0
  8  9  1  0
  5  2  1  0
  9  6  1  0
  6  4  1  0
  3 10  1  0
  3 11  1  0
  4 12  1  0
  5 13  1  0
  7 14  1  0
  7 15  1  0
  9 16  1  0
  9 17  1  0
M  END
