
     RDKit          3D

 15 16  0  0  0  0  0  0  0  0999 V2000
   -2.6781    1.2934    0.4493 O   0  0  0  0  0  0  0  0  0  0  0  0
   -1.6267    0.6873    0.1429 C   0  0  0  0  0  0  0  0  0  0  0  0
   -1.2640   -0.6395    0.6871 C   0  0  0  0  0  0  0  0  0  0  0  0
    0.1608   -0.9054    0.3467 C   0  0  0  0  0  0  0  0  0  0  0  0
    1.2452    0.0318    0.6299 C   0  0  0  0  0  0  0  0  0  0  0  0
    2.5523   -0.4988    0.5745 O   0  0  0  0  0  0  0  0  0  0  0  0
    0.5462    0.1212   -0.6540 C   0  0  0  0  0  0  0  0  0  0  0  0
   -0.5609    1.0871   -0.7575 C   0  0  0  0  0  0  0  0  0  0  0  0
   -0.5656    2.0831   -1.5039 O   0  0  0  0  0  0  0  0  0  0  0  0
   -1.9372   -1.3898    0.2560 H   0  0  0  0  0  0  0  0  0  0  0  0
   -1.4609   -0.6037    1.7801 H   0  0  0  0  0  0  0  0  0  0  0  0
    0.4212   -1.9496    0.0851 H   0  0  0  0  0  0  0  0  0  0  0  0
    1.1703    0.8775    1.3293 H   0  0  0  0  0  0  0  0  0  0  0  0
    3.0019    0.0266   -0.1612 H   0  0  0  0  0  0  0  0  0  0  0  0
    0.9955   -0.2212   -1.6069 H   0  0  0  0  0  0  0  0  0  0  0  0
  1  2  2  0
  2  3  1  0
  3  4  1  0
  4  5  1  0
  5  6  1  0
  5  7  1  0
  7  8  1  0
  8  9  2  0
  8  2  1  0
  7  4  1  0
  3 10  1  0
  3 11  1  0
  4 12  1  0
  5 13  1  0
  6 14  1  0
  7 15  1  0
M  END
