
     RDKit          3D

 16 17  0  0  0  0  0  0  0  0999 V2000
    0.0536    0.1021    2.4526 O   0  0  0  0  0  0  0  0  0  0  0  0
   -0.1710   -0.1131    1.2853 C   0  0  0  0  0  0  0  0  0  0  0  0
   -1.5204    0.0716    0.6307 C   0  0  0  0  0  0  0  0  0  0  0  0
   -1.0467    0.8052   -0.6289 C   0  0  0  0  0  0  0  0  0  0  0  0
    0.0893   -0.1136   -1.0646 C   0  0  0  0  0  0  0  0  0  0  0  0
    1.4720    0.3839   -0.6413 C   0  0  0  0  0  0  0  0  0  0  0  0
    0.7126   -0.5877    0.1925 C   0  0  0  0  0  0  0  0  0  0  0  0
    1.2393   -1.8589    0.3148 O   0  0  0  0  0  0  0  0  0  0  0  0
   -2.1882    0.6944    1.2426 H   0  0  0  0  0  0  0  0  0  0  0  0
   -1.9804   -0.8962    0.3771 H   0  0  0  0  0  0  0  0  0  0  0  0
   -0.6493    1.7821   -0.2577 H   0  0  0  0  0  0  0  0  0  0  0  0
   -1.8296    0.9043   -1.3741 H   0  0  0  0  0  0  0  0  0  0  0  0
   -0.0178   -0.7190   -1.9571 H   0  0  0  0  0  0  0  0  0  0  0  0
    2.2775   -0.0303   -1.2627 H   0  0  0  0  0  0  0  0  0  0  0  0
    1.5463    1.4031   -0.2430 H   0  0  0  0  0  0  0  0  0  0  0  0
    2.0128   -1.8277    0.9338 H   0  0  0  0  0  0  0  0  0  0  0  0
  1  2  2  0
  2  3  1  0
  3  4  1  0
  4  5  1  0
  5  6  1  0
  6  7  1  0
  7  8  1  0
  7  2  1  0
  7  5  1  0
  3  9  1  0
  3 10  1  0
  4 11  1  0
  4 12  1  0
  5 13  1  0
  6 14  1  0
  6 15  1  0
  8 16  1  0
M  END
