
     RDKit          3D

 15 15  0  0  0  0  0  0  0  0999 V2000
   -1.4763   -1.5235   -1.1376 O   0  0  0  0  0  0  0  0  0  0  0  0
   -0.9439   -0.9318   -0.2407 C   0  0  0  0  0  0  0  0  0  0  0  0
    0.4338   -1.3993    0.1022 C   0  0  0  0  0  0  0  0  0  0  0  0
    1.4265   -0.3978   -0.3633 C   0  0  0  0  0  0  0  0  0  0  0  0
    1.3545    0.9172   -0.3935 C   0  0  0  0  0  0  0  0  0  0  0  0
    0.2284    1.7525    0.0437 C   0  0  0  0  0  0  0  0  0  0  0  0
    0.5662    2.9273    0.4201 O   0  0  0  0  0  0  0  0  0  0  0  0
   -1.1233    1.4461    0.1025 O   0  0  0  0  0  0  0  0  0  0  0  0
   -1.6679    0.1790    0.4351 C   0  0  0  0  0  0  0  0  0  0  0  0
    0.6018   -2.3939   -0.3435 H   0  0  0  0  0  0  0  0  0  0  0  0
    0.4434   -1.5002    1.2211 H   0  0  0  0  0  0  0  0  0  0  0  0
    2.3655   -0.7794   -0.7425 H   0  0  0  0  0  0  0  0  0  0  0  0
    2.1941    1.4798   -0.7742 H   0  0  0  0  0  0  0  0  0  0  0  0
   -2.7353    0.1644    0.1250 H   0  0  0  0  0  0  0  0  0  0  0  0
   -1.6676    0.0598    1.5455 H   0  0  0  0  0  0  0  0  0  0  0  0
  1  2  2  0
  2  3  1  0
  3  4  1  0
  4  5  2  0
  5  6  1  0
  6  7  2  0
  6  8  1  0
  8  9  1  0
  9  2  1  0
  3 10  1  0
  3 11  1  0
  4 12  1  0
  5 13  1  0
  9 14  1  0
  9 15  1  0
M  END
