
     RDKit          3D

 15 15  0  0  0  0  0  0  0  0999 V2000
   -0.0122   -1.4189    1.6845 O   0  0  0  0  0  0  0  0  0  0  0  0
   -0.1851   -0.9968    0.5623 C   0  0  0  0  0  0  0  0  0  0  0  0
    1.0683   -0.7631   -0.1895 C   0  0  0  0  0  0  0  0  0  0  0  0
    1.4812    0.6971   -0.1361 C   0  0  0  0  0  0  0  0  0  0  0  0
    0.3934    1.5525    0.1333 O   0  0  0  0  0  0  0  0  0  0  0  0
   -0.9096    1.5751   -0.3511 C   0  0  0  0  0  0  0  0  0  0  0  0
   -1.4225    2.6800   -0.6652 O   0  0  0  0  0  0  0  0  0  0  0  0
   -1.6861    0.4188   -0.5081 O   0  0  0  0  0  0  0  0  0  0  0  0
   -1.6116   -0.8117    0.2014 C   0  0  0  0  0  0  0  0  0  0  0  0
    1.8703   -1.3901    0.2504 H   0  0  0  0  0  0  0  0  0  0  0  0
    0.9751   -1.0981   -1.2440 H   0  0  0  0  0  0  0  0  0  0  0  0
    2.0236    1.0039   -1.0749 H   0  0  0  0  0  0  0  0  0  0  0  0
    2.2245    0.8558    0.6743 H   0  0  0  0  0  0  0  0  0  0  0  0
   -2.2189   -0.6882    1.1190 H   0  0  0  0  0  0  0  0  0  0  0  0
   -1.9904   -1.6163   -0.4564 H   0  0  0  0  0  0  0  0  0  0  0  0
  1  2  2  0
  2  3  1  0
  3  4  1  0
  4  5  1  0
  5  6  1  0
  6  7  2  0
  6  8  1  0
  8  9  1  0
  9  2  1  0
  3 10  1  0
  3 11  1  0
  4 12  1  0
  4 13  1  0
  9 14  1  0
  9 15  1  0
M  END
