
     RDKit          3D

 15 17  0  0  0  0  0  0  0  0999 V2000
   -2.2266    1.4215    1.4664 O   0  0  0  0  0  0  0  0  0  0  0  0
   -1.5635    0.7487    0.6367 C   0  0  0  0  0  0  0  0  0  0  0  0
   -1.8481   -0.5313    0.1827 O   0  0  0  0  0  0  0  0  0  0  0  0
   -0.6681   -1.0845   -0.3952 C   0  0  0  0  0  0  0  0  0  0  0  0
    0.4999   -1.1661    0.5950 C   0  0  0  0  0  0  0  0  0  0  0  0
    0.8478    0.2439    0.1934 C   0  0  0  0  0  0  0  0  0  0  0  0
    2.1287    0.7000    0.2008 O   0  0  0  0  0  0  0  0  0  0  0  0
   -0.3169    1.2042   -0.0348 C   0  0  0  0  0  0  0  0  0  0  0  0
   -0.0111    0.1304   -0.9749 C   0  0  0  0  0  0  0  0  0  0  0  0
   -0.8056   -1.9491   -1.0311 H   0  0  0  0  0  0  0  0  0  0  0  0
    0.0809   -1.2679    1.6257 H   0  0  0  0  0  0  0  0  0  0  0  0
    1.2260   -1.9421    0.3597 H   0  0  0  0  0  0  0  0  0  0  0  0
    2.4930    1.0103   -0.6480 H   0  0  0  0  0  0  0  0  0  0  0  0
   -0.1012    2.2564   -0.1700 H   0  0  0  0  0  0  0  0  0  0  0  0
    0.2648    0.2259   -2.0063 H   0  0  0  0  0  0  0  0  0  0  0  0
  1  2  2  0
  2  3  1  0
  3  4  1  0
  4  5  1  0
  5  6  1  0
  6  7  1  0
  6  8  1  0
  8  9  1  0
  8  2  1  0
  9  4  1  0
  9  6  1  0
  4 10  1  0
  5 11  1  0
  5 12  1  0
  7 13  1  0
  8 14  1  0
  9 15  1  0
M  END
