
     RDKit          3D

 17 18  0  0  0  0  0  0  0  0999 V2000
   -0.4651   -2.1643    1.5895 O   0  0  0  0  0  0  0  0  0  0  0  0
   -0.5863   -1.2047    0.8614 C   0  0  0  0  0  0  0  0  0  0  0  0
   -1.3657    0.0572    0.9250 C   0  0  0  0  0  0  0  0  0  0  0  0
   -0.5911    0.5346   -0.2829 C   0  0  0  0  0  0  0  0  0  0  0  0
   -1.3349    0.9041   -1.3757 O   0  0  0  0  0  0  0  0  0  0  0  0
    0.5017    1.4254    0.1104 C   0  0  0  0  0  0  0  0  0  0  0  0
    1.6479    0.7827   -0.0034 C   0  0  0  0  0  0  0  0  0  0  0  0
    1.4572   -0.5945   -0.4799 C   0  0  0  0  0  0  0  0  0  0  0  0
   -0.0089   -0.8357   -0.4457 C   0  0  0  0  0  0  0  0  0  0  0  0
   -2.4399   -0.0230    0.7487 H   0  0  0  0  0  0  0  0  0  0  0  0
   -1.1692    0.6620    1.8389 H   0  0  0  0  0  0  0  0  0  0  0  0
   -2.0324    0.2216   -1.5300 H   0  0  0  0  0  0  0  0  0  0  0  0
    0.3808    2.4600    0.4451 H   0  0  0  0  0  0  0  0  0  0  0  0
    2.6031    1.2348    0.2315 H   0  0  0  0  0  0  0  0  0  0  0  0
    1.8440   -0.7023   -1.5113 H   0  0  0  0  0  0  0  0  0  0  0  0
    1.9910   -1.3265    0.1593 H   0  0  0  0  0  0  0  0  0  0  0  0
   -0.4321   -1.4317   -1.2807 H   0  0  0  0  0  0  0  0  0  0  0  0
  1  2  2  0
  2  3  1  0
  3  4  1  0
  4  5  1  0
  4  6  1  0
  6  7  2  0
  7  8  1  0
  8  9  1  0
  9  2  1  0
  9  4  1  0
  3 10  1  0
  3 11  1  0
  5 12  1  0
  6 13  1  0
  7 14  1  0
  8 15  1  0
  8 16  1  0
  9 17  1  0
M  END
