
     RDKit          3D

 14 15  0  0  0  0  0  0  0  0999 V2000
   -0.5845   -1.9242   -1.3654 O   0  0  0  0  0  0  0  0  0  0  0  0
   -0.4116   -0.9439   -0.7126 C   0  0  0  0  0  0  0  0  0  0  0  0
   -1.3038   -0.3527    0.3138 C   0  0  0  0  0  0  0  0  0  0  0  0
   -0.2667    0.3221    1.1551 C   0  0  0  0  0  0  0  0  0  0  0  0
    0.2461    1.5174    1.1911 O   0  0  0  0  0  0  0  0  0  0  0  0
    0.2775    1.1457   -0.0566 C   0  0  0  0  0  0  0  0  0  0  0  0
    0.7781   -0.0585   -0.7794 C   0  0  0  0  0  0  0  0  0  0  0  0
    1.8645   -0.5716   -0.0684 O   0  0  0  0  0  0  0  0  0  0  0  0
   -1.9183   -1.0724    0.8463 H   0  0  0  0  0  0  0  0  0  0  0  0
   -1.9746    0.4236   -0.1025 H   0  0  0  0  0  0  0  0  0  0  0  0
    0.4469   -0.4685    1.5507 H   0  0  0  0  0  0  0  0  0  0  0  0
   -0.5097    1.6676   -0.6841 H   0  0  0  0  0  0  0  0  0  0  0  0
    1.0886    0.1840   -1.8075 H   0  0  0  0  0  0  0  0  0  0  0  0
    2.2675    0.1312    0.5197 H   0  0  0  0  0  0  0  0  0  0  0  0
  1  2  2  0
  2  3  1  0
  3  4  1  0
  4  5  1  0
  5  6  1  0
  6  7  1  0
  7  8  1  0
  7  2  1  0
  6  4  1  0
  3  9  1  0
  3 10  1  0
  4 11  1  0
  6 12  1  0
  7 13  1  0
  8 14  1  0
M  END
