
     RDKit          3D

 19 20  0  0  0  0  0  0  0  0999 V2000
    0.1845    0.5565    2.5118 O   0  0  0  0  0  0  0  0  0  0  0  0
    0.1800    0.2827    1.3672 C   0  0  0  0  0  0  0  0  0  0  0  0
    0.5172    1.1666    0.2267 C   0  0  0  0  0  0  0  0  0  0  0  0
    1.5261    0.2399   -0.4736 C   0  0  0  0  0  0  0  0  0  0  0  0
    0.7627   -1.0584   -0.5183 C   0  0  0  0  0  0  0  0  0  0  0  0
   -0.1559   -1.0030    0.7106 C   0  0  0  0  0  0  0  0  0  0  0  0
   -1.5541   -0.7918    0.1448 C   0  0  0  0  0  0  0  0  0  0  0  0
   -1.8061    0.5402   -0.0817 O   0  0  0  0  0  0  0  0  0  0  0  0
   -0.7568    1.2724   -0.5881 C   0  0  0  0  0  0  0  0  0  0  0  0
    0.9508    2.1220    0.5007 H   0  0  0  0  0  0  0  0  0  0  0  0
    1.8364    0.6215   -1.4360 H   0  0  0  0  0  0  0  0  0  0  0  0
    2.3473    0.1071    0.2618 H   0  0  0  0  0  0  0  0  0  0  0  0
    0.2064   -1.0911   -1.4655 H   0  0  0  0  0  0  0  0  0  0  0  0
    1.4496   -1.9254   -0.4166 H   0  0  0  0  0  0  0  0  0  0  0  0
   -0.0648   -1.8709    1.3494 H   0  0  0  0  0  0  0  0  0  0  0  0
   -1.7189   -1.3891   -0.7642 H   0  0  0  0  0  0  0  0  0  0  0  0
   -2.2823   -1.1491    0.9035 H   0  0  0  0  0  0  0  0  0  0  0  0
   -0.5624    1.0296   -1.6648 H   0  0  0  0  0  0  0  0  0  0  0  0
   -1.0600    2.3402   -0.5676 H   0  0  0  0  0  0  0  0  0  0  0  0
  1  2  2  0
  2  3  1  0
  3  4  1  0
  4  5  1  0
  5  6  1  0
  6  7  1  0
  7  8  1  0
  8  9  1  0
  6  2  1  0
  9  3  1  0
  3 10  1  0
  4 11  1  0
  4 12  1  0
  5 13  1  0
  5 14  1  0
  6 15  1  0
  7 16  1  0
  7 17  1  0
  9 18  1  0
  9 19  1  0
M  END
