
     RDKit          3D

 15 16  0  0  0  0  0  0  0  0999 V2000
    3.0382    0.8802    0.0376 O   0  0  0  0  0  0  0  0  0  0  0  0
    1.9044    0.3204   -0.0802 C   0  0  0  0  0  0  0  0  0  0  0  0
    1.4892   -0.7250    0.7436 O   0  0  0  0  0  0  0  0  0  0  0  0
    0.1042   -0.9586    1.0725 C   0  0  0  0  0  0  0  0  0  0  0  0
   -0.6556    0.0813    0.3661 C   0  0  0  0  0  0  0  0  0  0  0  0
   -0.4302    1.3489    0.9640 O   0  0  0  0  0  0  0  0  0  0  0  0
   -1.4887    0.0777   -0.7692 C   0  0  0  0  0  0  0  0  0  0  0  0
   -0.1324   -0.0832   -1.1118 C   0  0  0  0  0  0  0  0  0  0  0  0
    0.9786    0.7331   -1.0738 O   0  0  0  0  0  0  0  0  0  0  0  0
    0.0157   -0.8756    2.1884 H   0  0  0  0  0  0  0  0  0  0  0  0
   -0.1598   -1.9676    0.7234 H   0  0  0  0  0  0  0  0  0  0  0  0
   -0.6207    2.0667    0.3149 H   0  0  0  0  0  0  0  0  0  0  0  0
   -2.0402    1.0193   -1.0448 H   0  0  0  0  0  0  0  0  0  0  0  0
   -2.1908   -0.7897   -0.9198 H   0  0  0  0  0  0  0  0  0  0  0  0
    0.1879   -1.1278   -1.4109 H   0  0  0  0  0  0  0  0  0  0  0  0
  1  2  2  0
  2  3  1  0
  3  4  1  0
  4  5  1  0
  5  6  1  0
  5  7  1  0
  7  8  1  0
  8  9  1  0
  9  2  1  0
  8  5  1  0
  4 10  1  0
  4 11  1  0
  6 12  1  0
  7 13  1  0
  7 14  1  0
  8 15  1  0
M  END
