
     RDKit          3D

 17 19  0  0  0  0  0  0  0  0999 V2000
    1.7160    2.0124    0.6036 O   0  0  0  0  0  0  0  0  0  0  0  0
    1.1733    1.1060    0.0360 C   0  0  0  0  0  0  0  0  0  0  0  0
   -0.2302    1.3137   -0.4459 C   0  0  0  0  0  0  0  0  0  0  0  0
   -1.0551    0.3486    0.3027 C   0  0  0  0  0  0  0  0  0  0  0  0
   -1.7611   -0.8362    0.0813 C   0  0  0  0  0  0  0  0  0  0  0  0
   -0.3867   -0.9858   -0.2277 C   0  0  0  0  0  0  0  0  0  0  0  0
    0.8002   -1.0921    0.5785 C   0  0  0  0  0  0  0  0  0  0  0  0
    2.0740   -1.2751    0.3946 O   0  0  0  0  0  0  0  0  0  0  0  0
    1.7873   -0.1599   -0.2071 C   0  0  0  0  0  0  0  0  0  0  0  0
   -0.1970    1.1584   -1.5432 H   0  0  0  0  0  0  0  0  0  0  0  0
   -0.5820    2.3409   -0.2197 H   0  0  0  0  0  0  0  0  0  0  0  0
   -0.8690    0.5698    1.4065 H   0  0  0  0  0  0  0  0  0  0  0  0
   -2.1365   -1.4522    0.9531 H   0  0  0  0  0  0  0  0  0  0  0  0
   -2.5628   -0.8579   -0.6991 H   0  0  0  0  0  0  0  0  0  0  0  0
   -0.2196   -1.0253   -1.3496 H   0  0  0  0  0  0  0  0  0  0  0  0
    0.6557   -0.8145    1.6730 H   0  0  0  0  0  0  0  0  0  0  0  0
    1.7934   -0.3510   -1.3371 H   0  0  0  0  0  0  0  0  0  0  0  0
  1  2  2  0
  2  3  1  0
  3  4  1  0
  4  5  1  0
  5  6  1  0
  6  7  1  0
  7  8  1  0
  8  9  1  0
  9  2  1  0
  6  4  1  0
  9  7  1  0
  3 10  1  0
  3 11  1  0
  4 12  1  0
  5 13  1  0
  5 14  1  0
  6 15  1  0
  7 16  1  0
  9 17  1  0
M  END
