
     RDKit          3D

 15 16  0  0  0  0  0  0  0  0999 V2000
   -3.0687   -0.6468   -1.4603 O   0  0  0  0  0  0  0  0  0  0  0  0
   -2.0854   -0.2883   -0.7908 C   0  0  0  0  0  0  0  0  0  0  0  0
   -1.9441    0.7421    0.2734 C   0  0  0  0  0  0  0  0  0  0  0  0
   -0.8393    0.2155    0.9875 O   0  0  0  0  0  0  0  0  0  0  0  0
    0.0098   -0.0452   -0.0806 C   0  0  0  0  0  0  0  0  0  0  0  0
    1.2598   -0.7721    0.3117 C   0  0  0  0  0  0  0  0  0  0  0  0
    2.5377   -0.0710   -0.1174 C   0  0  0  0  0  0  0  0  0  0  0  0
    2.1410   -0.2390    1.2071 O   0  0  0  0  0  0  0  0  0  0  0  0
   -0.7998   -0.8336   -0.9185 O   0  0  0  0  0  0  0  0  0  0  0  0
   -2.8271    0.8355    0.9041 H   0  0  0  0  0  0  0  0  0  0  0  0
   -1.6885    1.7395   -0.1646 H   0  0  0  0  0  0  0  0  0  0  0  0
    0.2039    0.9033   -0.6034 H   0  0  0  0  0  0  0  0  0  0  0  0
    1.2652   -1.8571    0.0681 H   0  0  0  0  0  0  0  0  0  0  0  0
    2.4660    0.9810   -0.4821 H   0  0  0  0  0  0  0  0  0  0  0  0
    3.3695   -0.6637   -0.5185 H   0  0  0  0  0  0  0  0  0  0  0  0
  1  2  2  0
  2  3  1  0
  3  4  1  0
  4  5  1  0
  5  6  1  0
  6  7  1  0
  7  8  1  0
  5  9  1  0
  9  2  1  0
  8  6  1  0
  3 10  1  0
  3 11  1  0
  5 12  1  0
  6 13  1  0
  7 14  1  0
  7 15  1  0
M  END
