
     RDKit          3D

 19 20  0  0  0  0  0  0  0  0999 V2000
   -1.7057    1.5595   -1.8304 O   0  0  0  0  0  0  0  0  0  0  0  0
   -0.8362    0.9222   -1.2092 C   0  0  0  0  0  0  0  0  0  0  0  0
    0.2739    0.3012   -1.7587 O   0  0  0  0  0  0  0  0  0  0  0  0
    0.9230   -0.5729   -0.8160 C   0  0  0  0  0  0  0  0  0  0  0  0
   -0.1405   -1.5338   -0.2690 C   0  0  0  0  0  0  0  0  0  0  0  0
   -1.1156   -0.7168    0.5341 C   0  0  0  0  0  0  0  0  0  0  0  0
   -0.9534    0.7847    0.2636 C   0  0  0  0  0  0  0  0  0  0  0  0
    0.4146    1.2314    0.8004 C   0  0  0  0  0  0  0  0  0  0  0  0
    1.4351    0.2027    0.3781 C   0  0  0  0  0  0  0  0  0  0  0  0
    1.7052   -1.0977   -1.3695 H   0  0  0  0  0  0  0  0  0  0  0  0
   -0.6505   -2.0607   -1.1169 H   0  0  0  0  0  0  0  0  0  0  0  0
    0.3862   -2.2557    0.4013 H   0  0  0  0  0  0  0  0  0  0  0  0
   -2.1355   -0.9905    0.2235 H   0  0  0  0  0  0  0  0  0  0  0  0
   -1.0080   -0.9389    1.6142 H   0  0  0  0  0  0  0  0  0  0  0  0
   -1.7778    1.3324    0.7045 H   0  0  0  0  0  0  0  0  0  0  0  0
    0.6981    2.1954    0.3083 H   0  0  0  0  0  0  0  0  0  0  0  0
    0.3938    1.4176    1.8763 H   0  0  0  0  0  0  0  0  0  0  0  0
    1.6984   -0.4973    1.1795 H   0  0  0  0  0  0  0  0  0  0  0  0
    2.3949    0.7171    0.0861 H   0  0  0  0  0  0  0  0  0  0  0  0
  1  2  2  0
  2  3  1  0
  3  4  1  0
  4  5  1  0
  5  6  1  0
  6  7  1  0
  7  8  1  0
  8  9  1  0
  7  2  1  0
  9  4  1  0
  4 10  1  0
  5 11  1  0
  5 12  1  0
  6 13  1  0
  6 14  1  0
  7 15  1  0
  8 16  1  0
  8 17  1  0
  9 18  1  0
  9 19  1  0
M  END
