
     RDKit          3D

 19 20  0  0  0  0  0  0  0  0999 V2000
    0.4295    2.3042    0.7009 O   0  0  0  0  0  0  0  0  0  0  0  0
    0.6440    1.2312    0.2053 C   0  0  0  0  0  0  0  0  0  0  0  0
    1.9424    0.5557    0.3660 C   0  0  0  0  0  0  0  0  0  0  0  0
    1.7046   -0.9312    0.0809 C   0  0  0  0  0  0  0  0  0  0  0  0
    0.4691   -1.2323    0.6619 O   0  0  0  0  0  0  0  0  0  0  0  0
   -0.5076   -0.9025   -0.2437 C   0  0  0  0  0  0  0  0  0  0  0  0
   -1.8947   -0.7053    0.2991 C   0  0  0  0  0  0  0  0  0  0  0  0
   -1.8143    0.7494   -0.0992 C   0  0  0  0  0  0  0  0  0  0  0  0
   -0.3997    0.5574   -0.5846 C   0  0  0  0  0  0  0  0  0  0  0  0
    2.3423    0.5980    1.3954 H   0  0  0  0  0  0  0  0  0  0  0  0
    2.6952    0.9764   -0.3210 H   0  0  0  0  0  0  0  0  0  0  0  0
    1.6362   -1.0426   -1.0344 H   0  0  0  0  0  0  0  0  0  0  0  0
    2.5185   -1.5291    0.5190 H   0  0  0  0  0  0  0  0  0  0  0  0
   -0.4634   -1.6002   -1.1173 H   0  0  0  0  0  0  0  0  0  0  0  0
   -2.0275   -0.8915    1.3797 H   0  0  0  0  0  0  0  0  0  0  0  0
   -2.6393   -1.2639   -0.2990 H   0  0  0  0  0  0  0  0  0  0  0  0
   -1.8698    1.4462    0.7318 H   0  0  0  0  0  0  0  0  0  0  0  0
   -2.4923    1.0081   -0.9571 H   0  0  0  0  0  0  0  0  0  0  0  0
   -0.2733    0.6719   -1.6840 H   0  0  0  0  0  0  0  0  0  0  0  0
  1  2  2  0
  2  3  1  0
  3  4  1  0
  4  5  1  0
  5  6  1  0
  6  7  1  0
  7  8  1  0
  8  9  1  0
  9  2  1  0
  9  6  1  0
  3 10  1  0
  3 11  1  0
  4 12  1  0
  4 13  1  0
  6 14  1  0
  7 15  1  0
  7 16  1  0
  8 17  1  0
  8 18  1  0
  9 19  1  0
M  END
