
     RDKit          3D

 14 16  0  0  0  0  0  0  0  0999 V2000
    2.7754   -0.4314    0.2798 O   0  0  0  0  0  0  0  0  0  0  0  0
    1.6143   -0.2323    0.0249 C   0  0  0  0  0  0  0  0  0  0  0  0
    0.4397   -1.0384   -0.3904 C   0  0  0  0  0  0  0  0  0  0  0  0
   -0.3086   -1.4155    0.7126 O   0  0  0  0  0  0  0  0  0  0  0  0
   -1.1378   -0.3935    1.0891 C   0  0  0  0  0  0  0  0  0  0  0  0
   -0.7062    0.8420    0.2854 C   0  0  0  0  0  0  0  0  0  0  0  0
    0.7485    0.9588   -0.0022 C   0  0  0  0  0  0  0  0  0  0  0  0
   -0.1503    0.2339   -0.9110 C   0  0  0  0  0  0  0  0  0  0  0  0
    0.6190   -1.8023   -1.1507 H   0  0  0  0  0  0  0  0  0  0  0  0
   -1.1815   -0.1873    2.1620 H   0  0  0  0  0  0  0  0  0  0  0  0
   -2.1655   -0.6387    0.6908 H   0  0  0  0  0  0  0  0  0  0  0  0
   -1.3463    1.7025    0.2252 H   0  0  0  0  0  0  0  0  0  0  0  0
    1.1462    1.9545   -0.1947 H   0  0  0  0  0  0  0  0  0  0  0  0
   -0.3469    0.4478   -1.9330 H   0  0  0  0  0  0  0  0  0  0  0  0
  1  2  2  0
  2  3  1  0
  3  4  1  0
  4  5  1  0
  5  6  1  0
  6  7  1  0
  7  8  1  0
  7  2  1  0
  8  3  1  0
  8  6  1  0
  3  9  1  0
  5 10  1  0
  5 11  1  0
  6 12  1  0
  7 13  1  0
  8 14  1  0
M  END
