
     RDKit          3D

 15 16  0  0  0  0  0  0  0  0999 V2000
   -1.7667   -2.2575   -0.2746 O   0  0  0  0  0  0  0  0  0  0  0  0
   -1.3521   -1.1186    0.0431 C   0  0  0  0  0  0  0  0  0  0  0  0
   -2.1592    0.1232    0.1277 C   0  0  0  0  0  0  0  0  0  0  0  0
   -1.3631    1.1760    0.0456 C   0  0  0  0  0  0  0  0  0  0  0  0
    0.0207    0.7119   -0.0988 C   0  0  0  0  0  0  0  0  0  0  0  0
    1.2624    0.9429   -0.4453 C   0  0  0  0  0  0  0  0  0  0  0  0
    2.0845   -0.3037   -0.2099 C   0  0  0  0  0  0  0  0  0  0  0  0
    1.0372   -1.2763   -0.2960 O   0  0  0  0  0  0  0  0  0  0  0  0
    0.0150   -0.7132    0.4097 C   0  0  0  0  0  0  0  0  0  0  0  0
   -3.2435    0.0702    0.2401 H   0  0  0  0  0  0  0  0  0  0  0  0
   -1.6937    2.2014    0.0794 H   0  0  0  0  0  0  0  0  0  0  0  0
    1.6021    1.8967   -0.8352 H   0  0  0  0  0  0  0  0  0  0  0  0
    2.7768   -0.3888   -1.0516 H   0  0  0  0  0  0  0  0  0  0  0  0
    2.5524   -0.3082    0.7812 H   0  0  0  0  0  0  0  0  0  0  0  0
    0.2272   -0.7560    1.4846 H   0  0  0  0  0  0  0  0  0  0  0  0
  1  2  2  0
  2  3  1  0
  3  4  2  0
  4  5  1  0
  5  6  2  0
  6  7  1  0
  7  8  1  0
  8  9  1  0
  9  2  1  0
  9  5  1  0
  3 10  1  0
  4 11  1  0
  6 12  1  0
  7 13  1  0
  7 14  1  0
  9 15  1  0
M  END
