
     RDKit          3D

 19 20  0  0  0  0  0  0  0  0999 V2000
   -1.7087   -1.7259   -1.5256 O   0  0  0  0  0  0  0  0  0  0  0  0
   -1.3132   -0.9635   -0.6720 C   0  0  0  0  0  0  0  0  0  0  0  0
   -1.9431    0.2916   -0.1930 C   0  0  0  0  0  0  0  0  0  0  0  0
   -0.7161    1.1229    0.1538 C   0  0  0  0  0  0  0  0  0  0  0  0
    0.0880    0.1132    0.9464 C   0  0  0  0  0  0  0  0  0  0  0  0
    1.5576    0.1077    0.5936 C   0  0  0  0  0  0  0  0  0  0  0  0
    2.1139    1.3321    0.3152 O   0  0  0  0  0  0  0  0  0  0  0  0
    1.2057   -0.7335   -0.6190 C   0  0  0  0  0  0  0  0  0  0  0  0
   -0.0601   -1.1396    0.1027 C   0  0  0  0  0  0  0  0  0  0  0  0
   -2.5769    0.7684   -0.9429 H   0  0  0  0  0  0  0  0  0  0  0  0
   -2.4632    0.0939    0.7696 H   0  0  0  0  0  0  0  0  0  0  0  0
   -0.9573    2.0148    0.7381 H   0  0  0  0  0  0  0  0  0  0  0  0
   -0.1977    1.3476   -0.7979 H   0  0  0  0  0  0  0  0  0  0  0  0
   -0.1634    0.0218    1.9998 H   0  0  0  0  0  0  0  0  0  0  0  0
    2.1201   -0.4473    1.3553 H   0  0  0  0  0  0  0  0  0  0  0  0
    2.0385    1.6085   -0.6323 H   0  0  0  0  0  0  0  0  0  0  0  0
    1.0125   -0.1818   -1.5434 H   0  0  0  0  0  0  0  0  0  0  0  0
    1.9578   -1.5414   -0.7214 H   0  0  0  0  0  0  0  0  0  0  0  0
    0.0056   -2.0896    0.6729 H   0  0  0  0  0  0  0  0  0  0  0  0
  1  2  2  0
  2  3  1  0
  3  4  1  0
  4  5  1  0
  5  6  1  0
  6  7  1  0
  6  8  1  0
  8  9  1  0
  9  2  1  0
  9  5  1  0
  3 10  1  0
  3 11  1  0
  4 12  1  0
  4 13  1  0
  5 14  1  0
  6 15  1  0
  7 16  1  0
  8 17  1  0
  8 18  1  0
  9 19  1  0
M  END
