
     RDKit          3D

 15 17  0  0  0  0  0  0  0  0999 V2000
   -2.0966   -2.1306   -1.0868 O   0  0  0  0  0  0  0  0  0  0  0  0
   -1.4183   -1.3447   -0.4032 C   0  0  0  0  0  0  0  0  0  0  0  0
   -0.9114   -1.3163    0.8816 O   0  0  0  0  0  0  0  0  0  0  0  0
   -0.3727   -0.0089    0.8203 C   0  0  0  0  0  0  0  0  0  0  0  0
    1.0961    0.2150    0.7703 C   0  0  0  0  0  0  0  0  0  0  0  0
    1.4304   -0.0982   -0.6736 C   0  0  0  0  0  0  0  0  0  0  0  0
    0.3033    0.1204   -1.4153 O   0  0  0  0  0  0  0  0  0  0  0  0
   -0.8092   -0.0324   -0.6288 C   0  0  0  0  0  0  0  0  0  0  0  0
   -1.2284    1.0930    0.2255 C   0  0  0  0  0  0  0  0  0  0  0  0
    1.6884   -0.3702    1.4831 H   0  0  0  0  0  0  0  0  0  0  0  0
    1.2823    1.2959    0.9995 H   0  0  0  0  0  0  0  0  0  0  0  0
    1.7115   -1.1690   -0.7231 H   0  0  0  0  0  0  0  0  0  0  0  0
    2.3005    0.5455   -0.9831 H   0  0  0  0  0  0  0  0  0  0  0  0
   -0.7479    2.0522    0.0538 H   0  0  0  0  0  0  0  0  0  0  0  0
   -2.2281    1.1484    0.6799 H   0  0  0  0  0  0  0  0  0  0  0  0
  1  2  2  0
  2  3  1  0
  3  4  1  0
  4  5  1  0
  5  6  1  0
  6  7  1  0
  7  8  1  0
  8  9  1  0
  8  2  1  0
  8  4  1  0
  9  4  1  0
  5 10  1  0
  5 11  1  0
  6 12  1  0
  6 13  1  0
  9 14  1  0
  9 15  1  0
M  END
