
     RDKit          2D

 17 19  0  0  0  0  0  0  0  0999 V2000
    2.7648   -0.1828    0.0000 O   0  0  0  0  0  0  0  0  0  0  0  0
    1.2760    0.0000    0.0000 C   0  0  0  0  0  0  0  0  0  0  0  0
    0.3943    1.2135    0.0000 O   0  0  0  0  0  0  0  0  0  0  0  0
   -1.0323    0.7500    0.0000 C   0  0  0  0  0  0  0  0  0  0  0  0
   -1.0323   -0.7500    0.0000 C   0  0  0  0  0  0  0  0  0  0  0  0
    0.3943   -1.2135    0.0000 C   0  0  0  0  0  0  0  0  0  0  0  0
    0.3943   -1.1511    0.0000 C   0  0  0  0  0  0  0  0  0  0  0  0
    0.3943    0.2241    0.0000 C   0  0  0  0  0  0  0  0  0  0  0  0
    0.3943    0.2865    0.0000 C   0  0  0  0  0  0  0  0  0  0  0  0
   -2.2458    1.6317    0.0000 H   0  0  0  0  0  0  0  0  0  0  0  0
   -1.3442   -2.2172    0.0000 H   0  0  0  0  0  0  0  0  0  0  0  0
   -2.5241   -0.5932    0.0000 H   0  0  0  0  0  0  0  0  0  0  0  0
    3.3943   -1.2135    0.0000 H   0  0  0  0  0  0  0  0  0  0  0  0
    1.8943   -2.7135    0.0000 H   0  0  0  0  0  0  0  0  0  0  0  0
    1.8943    1.7865    0.0000 H   0  0  0  0  0  0  0  0  0  0  0  0
    3.3831    0.4693    0.0000 H   0  0  0  0  0  0  0  0  0  0  0  0
    0.9805    1.6672    0.0000 H   0  0  0  0  0  0  0  0  0  0  0  0
  1  2  2  0
  2  3  1  0
  3  4  1  0
  4  5  1  0
  5  6  1  0
  6  7  1  0
  7  8  1  0
  8  9  1  0
  6  2  1  0
  9  4  1  0
  9  6  1  0
  4 10  1  0
  5 11  1  0
  5 12  1  0
  7 13  1  0
  7 14  1  0
  8 15  1  0
  8 16  1  0
  9 17  1  0
M  END
