
     RDKit          3D

 15 17  0  0  0  0  0  0  0  0999 V2000
   -2.6471   -1.0612    0.1673 O   0  0  0  0  0  0  0  0  0  0  0  0
   -1.5181   -0.6432    0.1795 C   0  0  0  0  0  0  0  0  0  0  0  0
   -0.9939    0.5860    0.8188 C   0  0  0  0  0  0  0  0  0  0  0  0
    0.3768    0.8134    0.2005 C   0  0  0  0  0  0  0  0  0  0  0  0
    0.8715    2.0910    0.0939 O   0  0  0  0  0  0  0  0  0  0  0  0
    1.2778   -0.3744    0.2717 C   0  0  0  0  0  0  0  0  0  0  0  0
    0.6915   -1.6008    0.4180 O   0  0  0  0  0  0  0  0  0  0  0  0
   -0.3623   -1.3015   -0.4731 C   0  0  0  0  0  0  0  0  0  0  0  0
    0.4490   -0.1205   -0.9130 C   0  0  0  0  0  0  0  0  0  0  0  0
   -0.8407    0.3546    1.8948 H   0  0  0  0  0  0  0  0  0  0  0  0
   -1.5955    1.4797    0.6360 H   0  0  0  0  0  0  0  0  0  0  0  0
    1.7038    2.0421   -0.4410 H   0  0  0  0  0  0  0  0  0  0  0  0
    2.3761   -0.2556    0.2734 H   0  0  0  0  0  0  0  0  0  0  0  0
   -0.5739   -2.0592   -1.2163 H   0  0  0  0  0  0  0  0  0  0  0  0
    0.7848    0.0496   -1.9105 H   0  0  0  0  0  0  0  0  0  0  0  0
  1  2  2  0
  2  3  1  0
  3  4  1  0
  4  5  1  0
  4  6  1  0
  6  7  1  0
  7  8  1  0
  8  9  1  0
  8  2  1  0
  9  4  1  0
  9  6  1  0
  3 10  1  0
  3 11  1  0
  5 12  1  0
  6 13  1  0
  8 14  1  0
  9 15  1  0
M  END
