
     RDKit          3D

 15 17  0  0  0  0  0  0  0  0999 V2000
    1.1888    1.4163    1.8653 O   0  0  0  0  0  0  0  0  0  0  0  0
    0.8747    0.6448    0.8959 C   0  0  0  0  0  0  0  0  0  0  0  0
    1.8220    0.1634   -0.1068 C   0  0  0  0  0  0  0  0  0  0  0  0
    1.1385   -0.5124   -1.0141 C   0  0  0  0  0  0  0  0  0  0  0  0
   -0.2950   -0.5544   -0.7246 C   0  0  0  0  0  0  0  0  0  0  0  0
   -0.7349   -1.3228    0.4608 C   0  0  0  0  0  0  0  0  0  0  0  0
   -0.4891    0.1163    0.6318 C   0  0  0  0  0  0  0  0  0  0  0  0
   -1.4202    1.0381   -0.1260 C   0  0  0  0  0  0  0  0  0  0  0  0
   -1.0617    0.4071   -1.3159 O   0  0  0  0  0  0  0  0  0  0  0  0
    2.8862    0.3588   -0.0599 H   0  0  0  0  0  0  0  0  0  0  0  0
    1.5903   -0.9813   -1.8737 H   0  0  0  0  0  0  0  0  0  0  0  0
   -1.7859   -1.6526    0.5521 H   0  0  0  0  0  0  0  0  0  0  0  0
   -0.0172   -2.0942    0.8125 H   0  0  0  0  0  0  0  0  0  0  0  0
   -1.1941    2.1092   -0.0586 H   0  0  0  0  0  0  0  0  0  0  0  0
   -2.5024    0.8637    0.0612 H   0  0  0  0  0  0  0  0  0  0  0  0
  1  2  2  0
  2  3  1  0
  3  4  2  0
  4  5  1  0
  5  6  1  0
  6  7  1  0
  7  8  1  0
  8  9  1  0
  7  2  1  0
  7  5  1  0
  9  5  1  0
  3 10  1  0
  4 11  1  0
  6 12  1  0
  6 13  1  0
  8 14  1  0
  8 15  1  0
M  END
