
     RDKit          3D

 14 15  0  0  0  0  0  0  0  0999 V2000
    1.7583    1.9545   -1.0449 O   0  0  0  0  0  0  0  0  0  0  0  0
    1.0809    1.0443   -0.5037 C   0  0  0  0  0  0  0  0  0  0  0  0
    1.6524   -0.0817    0.1988 C   0  0  0  0  0  0  0  0  0  0  0  0
    0.7084   -0.8421    0.7150 C   0  0  0  0  0  0  0  0  0  0  0  0
   -0.6237   -0.2835    0.3993 C   0  0  0  0  0  0  0  0  0  0  0  0
   -1.5087   -0.1133    1.4517 O   0  0  0  0  0  0  0  0  0  0  0  0
   -1.0501   -0.3108   -1.0010 C   0  0  0  0  0  0  0  0  0  0  0  0
   -0.3990    0.9042   -0.4527 C   0  0  0  0  0  0  0  0  0  0  0  0
    2.7123   -0.2708    0.2865 H   0  0  0  0  0  0  0  0  0  0  0  0
    0.8838   -1.7315    1.2786 H   0  0  0  0  0  0  0  0  0  0  0  0
   -1.6269   -0.9145    2.0056 H   0  0  0  0  0  0  0  0  0  0  0  0
   -2.1083   -0.1835   -1.3113 H   0  0  0  0  0  0  0  0  0  0  0  0
   -0.4958   -1.0048   -1.6865 H   0  0  0  0  0  0  0  0  0  0  0  0
   -0.9836    1.8335   -0.3355 H   0  0  0  0  0  0  0  0  0  0  0  0
  1  2  2  0
  2  3  1  0
  3  4  2  0
  4  5  1  0
  5  6  1  0
  5  7  1  0
  7  8  1  0
  8  2  1  0
  8  5  1  0
  3  9  1  0
  4 10  1  0
  6 11  1  0
  7 12  1  0
  7 13  1  0
  8 14  1  0
M  END
