
     RDKit          3D

 17 18  0  0  0  0  0  0  0  0999 V2000
   -2.3414   -0.0625   -1.6407 O   0  0  0  0  0  0  0  0  0  0  0  0
   -1.3411   -0.0290   -0.9626 C   0  0  0  0  0  0  0  0  0  0  0  0
    0.0762   -0.3265   -1.3037 C   0  0  0  0  0  0  0  0  0  0  0  0
    0.8064   -0.4596    0.0123 C   0  0  0  0  0  0  0  0  0  0  0  0
    2.0036    0.1945    0.3262 C   0  0  0  0  0  0  0  0  0  0  0  0
    1.9316   -1.2467    0.0403 O   0  0  0  0  0  0  0  0  0  0  0  0
   -0.3212   -0.6953    0.9912 C   0  0  0  0  0  0  0  0  0  0  0  0
   -1.3216    0.3490    0.4747 C   0  0  0  0  0  0  0  0  0  0  0  0
   -0.6988    1.5793    0.5801 O   0  0  0  0  0  0  0  0  0  0  0  0
    0.1245   -1.3077   -1.8062 H   0  0  0  0  0  0  0  0  0  0  0  0
    0.4654    0.5087   -1.9217 H   0  0  0  0  0  0  0  0  0  0  0  0
    2.5849    0.7651   -0.4247 H   0  0  0  0  0  0  0  0  0  0  0  0
    2.3449    0.3475    1.3530 H   0  0  0  0  0  0  0  0  0  0  0  0
   -0.0447   -0.5121    2.0271 H   0  0  0  0  0  0  0  0  0  0  0  0
   -0.7019   -1.7262    0.7945 H   0  0  0  0  0  0  0  0  0  0  0  0
   -2.2819    0.2754    0.9709 H   0  0  0  0  0  0  0  0  0  0  0  0
   -1.2849    2.3460    0.4894 H   0  0  0  0  0  0  0  0  0  0  0  0
  1  2  2  0
  2  3  1  0
  3  4  1  0
  4  5  1  0
  5  6  1  0
  4  7  1  0
  7  8  1  0
  8  9  1  0
  8  2  1  0
  6  4  1  0
  3 10  1  0
  3 11  1  0
  5 12  1  0
  5 13  1  0
  7 14  1  0
  7 15  1  0
  8 16  1  0
  9 17  1  0
M  END
