
     RDKit          3D

 17 18  0  0  0  0  0  0  0  0999 V2000
   -0.3322    2.0830   -1.1753 O   0  0  0  0  0  0  0  0  0  0  0  0
   -0.5479    1.1245   -0.4829 C   0  0  0  0  0  0  0  0  0  0  0  0
   -1.6657    0.5928    0.3867 C   0  0  0  0  0  0  0  0  0  0  0  0
   -0.5205    0.1781    1.3260 C   0  0  0  0  0  0  0  0  0  0  0  0
    0.1207   -0.1393   -0.0337 C   0  0  0  0  0  0  0  0  0  0  0  0
    1.5546   -0.2404   -0.0991 C   0  0  0  0  0  0  0  0  0  0  0  0
    2.1185   -0.0998   -1.3506 O   0  0  0  0  0  0  0  0  0  0  0  0
   -0.8020   -1.1645   -0.5590 C   0  0  0  0  0  0  0  0  0  0  0  0
   -2.0451   -0.6124   -0.1430 O   0  0  0  0  0  0  0  0  0  0  0  0
   -2.3718    1.2925    0.7588 H   0  0  0  0  0  0  0  0  0  0  0  0
    0.0111    1.0172    1.7748 H   0  0  0  0  0  0  0  0  0  0  0  0
   -0.7336   -0.6899    1.9435 H   0  0  0  0  0  0  0  0  0  0  0  0
    2.0068    0.5796    0.5353 H   0  0  0  0  0  0  0  0  0  0  0  0
    1.9434   -1.1790    0.3332 H   0  0  0  0  0  0  0  0  0  0  0  0
    2.8022    0.6172   -1.4053 H   0  0  0  0  0  0  0  0  0  0  0  0
   -0.8736   -1.1768   -1.6705 H   0  0  0  0  0  0  0  0  0  0  0  0
   -0.6648   -2.1828   -0.1389 H   0  0  0  0  0  0  0  0  0  0  0  0
  1  2  2  0
  2  3  1  0
  3  4  1  0
  4  5  1  0
  5  6  1  0
  6  7  1  0
  5  8  1  0
  8  9  1  0
  5  2  1  0
  9  3  1  0
  3 10  1  0
  4 11  1  0
  4 12  1  0
  6 13  1  0
  6 14  1  0
  7 15  1  0
  8 16  1  0
  8 17  1  0
M  END
