
     RDKit          3D

 21 22  0  0  0  0  0  0  0  0999 V2000
    0.7240   -2.0628    1.3617 O   0  0  0  0  0  0  0  0  0  0  0  0
    0.9579   -1.0954    0.6935 C   0  0  0  0  0  0  0  0  0  0  0  0
    2.1811   -0.2804    0.7476 C   0  0  0  0  0  0  0  0  0  0  0  0
    1.9369    0.9560   -0.0633 C   0  0  0  0  0  0  0  0  0  0  0  0
    0.4493    0.9542   -0.4214 C   0  0  0  0  0  0  0  0  0  0  0  0
    0.0741   -0.5065   -0.3306 C   0  0  0  0  0  0  0  0  0  0  0  0
   -1.3578   -0.7947   -0.1654 C   0  0  0  0  0  0  0  0  0  0  0  0
   -2.1452   -0.3942    1.0223 C   0  0  0  0  0  0  0  0  0  0  0  0
   -2.3231    0.3840   -0.2528 C   0  0  0  0  0  0  0  0  0  0  0  0
    2.4645   -0.0144    1.8064 H   0  0  0  0  0  0  0  0  0  0  0  0
    3.0468   -0.8751    0.3781 H   0  0  0  0  0  0  0  0  0  0  0  0
    2.5375    0.9889   -0.9960 H   0  0  0  0  0  0  0  0  0  0  0  0
    2.2151    1.8250    0.5327 H   0  0  0  0  0  0  0  0  0  0  0  0
   -0.0288    1.5784    0.3575 H   0  0  0  0  0  0  0  0  0  0  0  0
    0.3502    1.3540   -1.4464 H   0  0  0  0  0  0  0  0  0  0  0  0
    0.4125   -0.9491   -1.3129 H   0  0  0  0  0  0  0  0  0  0  0  0
   -1.7163   -1.7321   -0.6603 H   0  0  0  0  0  0  0  0  0  0  0  0
   -1.6257    0.1136    1.8838 H   0  0  0  0  0  0  0  0  0  0  0  0
   -2.9527   -1.0637    1.3857 H   0  0  0  0  0  0  0  0  0  0  0  0
   -3.2669    0.1997   -0.8425 H   0  0  0  0  0  0  0  0  0  0  0  0
   -1.9335    1.4143   -0.2912 H   0  0  0  0  0  0  0  0  0  0  0  0
  1  2  2  0
  2  3  1  0
  3  4  1  0
  4  5  1  0
  5  6  1  0
  6  7  1  0
  7  8  1  0
  8  9  1  0
  6  2  1  0
  9  7  1  0
  3 10  1  0
  3 11  1  0
  4 12  1  0
  4 13  1  0
  5 14  1  0
  5 15  1  0
  6 16  1  0
  7 17  1  0
  8 18  1  0
  8 19  1  0
  9 20  1  0
  9 21  1  0
M  END
