
     RDKit          3D

 17 18  0  0  0  0  0  0  0  0999 V2000
   -0.8031    1.4141   -1.9744 O   0  0  0  0  0  0  0  0  0  0  0  0
   -0.9039    0.6763   -1.0198 C   0  0  0  0  0  0  0  0  0  0  0  0
   -2.1626    0.3042   -0.3222 C   0  0  0  0  0  0  0  0  0  0  0  0
   -1.7946   -0.8557    0.3823 O   0  0  0  0  0  0  0  0  0  0  0  0
   -0.5137   -0.6020    0.8732 C   0  0  0  0  0  0  0  0  0  0  0  0
    0.1799   -0.0189   -0.3312 C   0  0  0  0  0  0  0  0  0  0  0  0
    1.1246   -0.9070   -1.0390 C   0  0  0  0  0  0  0  0  0  0  0  0
    1.5724    0.4000   -0.3295 C   0  0  0  0  0  0  0  0  0  0  0  0
    2.4399    0.1986    0.7165 O   0  0  0  0  0  0  0  0  0  0  0  0
   -2.3823    1.1414    0.3920 H   0  0  0  0  0  0  0  0  0  0  0  0
   -2.9919    0.0919   -0.9973 H   0  0  0  0  0  0  0  0  0  0  0  0
   -0.6355    0.1410    1.6910 H   0  0  0  0  0  0  0  0  0  0  0  0
   -0.0765   -1.5463    1.2245 H   0  0  0  0  0  0  0  0  0  0  0  0
    1.0788   -0.8616   -2.1483 H   0  0  0  0  0  0  0  0  0  0  0  0
    1.4065   -1.8593   -0.5412 H   0  0  0  0  0  0  0  0  0  0  0  0
    1.8377    1.2366   -1.0336 H   0  0  0  0  0  0  0  0  0  0  0  0
    2.6240    1.0466    1.1642 H   0  0  0  0  0  0  0  0  0  0  0  0
  1  2  2  0
  2  3  1  0
  3  4  1  0
  4  5  1  0
  5  6  1  0
  6  7  1  0
  7  8  1  0
  8  9  1  0
  6  2  1  0
  8  6  1  0
  3 10  1  0
  3 11  1  0
  5 12  1  0
  5 13  1  0
  7 14  1  0
  7 15  1  0
  8 16  1  0
  9 17  1  0
M  END
