
     RDKit          3D

 16 16  0  0  0  0  0  0  0  0999 V2000
    1.8079   -1.7967    1.3059 O   0  0  0  0  0  0  0  0  0  0  0  0
    1.3515   -1.0012    0.5501 C   0  0  0  0  0  0  0  0  0  0  0  0
    1.8871    0.3170    0.1959 C   0  0  0  0  0  0  0  0  0  0  0  0
    0.6559    1.1298    0.0854 C   0  0  0  0  0  0  0  0  0  0  0  0
   -0.3585    0.3244   -0.1728 C   0  0  0  0  0  0  0  0  0  0  0  0
   -1.7872    0.6995   -0.3659 C   0  0  0  0  0  0  0  0  0  0  0  0
   -2.6013    0.0755    0.5783 O   0  0  0  0  0  0  0  0  0  0  0  0
    0.1192   -1.1050   -0.2495 C   0  0  0  0  0  0  0  0  0  0  0  0
    2.2928    0.2271   -0.8375 H   0  0  0  0  0  0  0  0  0  0  0  0
    2.6220    0.7239    0.9046 H   0  0  0  0  0  0  0  0  0  0  0  0
    0.5997    2.2057    0.1982 H   0  0  0  0  0  0  0  0  0  0  0  0
   -1.8857    1.8026   -0.1770 H   0  0  0  0  0  0  0  0  0  0  0  0
   -2.1019    0.4440   -1.4040 H   0  0  0  0  0  0  0  0  0  0  0  0
   -2.3900   -0.8916    0.5673 H   0  0  0  0  0  0  0  0  0  0  0  0
   -0.6210   -1.8110    0.1328 H   0  0  0  0  0  0  0  0  0  0  0  0
    0.4094   -1.3440   -1.3119 H   0  0  0  0  0  0  0  0  0  0  0  0
  1  2  2  0
  2  3  1  0
  3  4  1  0
  4  5  2  0
  5  6  1  0
  6  7  1  0
  5  8  1  0
  8  2  1  0
  3  9  1  0
  3 10  1  0
  4 11  1  0
  6 12  1  0
  6 13  1  0
  7 14  1  0
  8 15  1  0
  8 16  1  0
M  END
