
     RDKit          3D

 15 17  0  0  0  0  0  0  0  0999 V2000
   -2.1011   -1.7315   -0.4106 O   0  0  0  0  0  0  0  0  0  0  0  0
   -1.2720   -0.8764   -0.2819 C   0  0  0  0  0  0  0  0  0  0  0  0
   -1.4613    0.4702    0.2944 C   0  0  0  0  0  0  0  0  0  0  0  0
   -0.0428    1.0199    0.5061 C   0  0  0  0  0  0  0  0  0  0  0  0
    0.7916    0.9687   -0.7238 C   0  0  0  0  0  0  0  0  0  0  0  0
    0.5521   -0.0373   -1.6253 O   0  0  0  0  0  0  0  0  0  0  0  0
    0.1485   -0.9954   -0.6836 C   0  0  0  0  0  0  0  0  0  0  0  0
    0.8107   -0.1407    0.3532 C   0  0  0  0  0  0  0  0  0  0  0  0
    2.0228   -0.3736    0.8779 O   0  0  0  0  0  0  0  0  0  0  0  0
   -1.9365    1.1490   -0.4402 H   0  0  0  0  0  0  0  0  0  0  0  0
   -2.0363    0.4750    1.2330 H   0  0  0  0  0  0  0  0  0  0  0  0
    0.1222    1.7482    1.2938 H   0  0  0  0  0  0  0  0  0  0  0  0
    1.6952    1.6057   -0.8125 H   0  0  0  0  0  0  0  0  0  0  0  0
    0.5371   -2.0001   -0.8395 H   0  0  0  0  0  0  0  0  0  0  0  0
    2.1698   -1.2816    1.2587 H   0  0  0  0  0  0  0  0  0  0  0  0
  1  2  2  0
  2  3  1  0
  3  4  1  0
  4  5  1  0
  5  6  1  0
  6  7  1  0
  7  8  1  0
  8  9  1  0
  7  2  1  0
  8  4  1  0
  8  5  1  0
  3 10  1  0
  3 11  1  0
  4 12  1  0
  5 13  1  0
  7 14  1  0
  9 15  1  0
M  END
