
     RDKit          3D

 17 18  0  0  0  0  0  0  0  0999 V2000
   -1.1313   -2.5055   -0.5616 O   0  0  0  0  0  0  0  0  0  0  0  0
   -0.6165   -1.4781   -0.1856 C   0  0  0  0  0  0  0  0  0  0  0  0
    0.8313   -1.3229    0.1250 C   0  0  0  0  0  0  0  0  0  0  0  0
    1.2433    0.0486   -0.3582 C   0  0  0  0  0  0  0  0  0  0  0  0
    1.0654    1.0826    0.7097 C   0  0  0  0  0  0  0  0  0  0  0  0
   -0.0703    1.6895    0.4108 C   0  0  0  0  0  0  0  0  0  0  0  0
   -0.7385    0.9062   -0.6577 C   0  0  0  0  0  0  0  0  0  0  0  0
   -1.4669   -0.2698   -0.0133 C   0  0  0  0  0  0  0  0  0  0  0  0
    0.3733    0.4643   -1.3889 O   0  0  0  0  0  0  0  0  0  0  0  0
    0.9177   -1.3843    1.2416 H   0  0  0  0  0  0  0  0  0  0  0  0
    1.4355   -2.1184   -0.3656 H   0  0  0  0  0  0  0  0  0  0  0  0
    2.2852    0.0714   -0.7022 H   0  0  0  0  0  0  0  0  0  0  0  0
    1.7577    1.2409    1.5188 H   0  0  0  0  0  0  0  0  0  0  0  0
   -0.4534    2.5819    0.8484 H   0  0  0  0  0  0  0  0  0  0  0  0
   -1.4296    1.5136   -1.2658 H   0  0  0  0  0  0  0  0  0  0  0  0
   -2.4719   -0.4233   -0.4549 H   0  0  0  0  0  0  0  0  0  0  0  0
   -1.5311   -0.0967    1.0995 H   0  0  0  0  0  0  0  0  0  0  0  0
  1  2  2  0
  2  3  1  0
  3  4  1  0
  4  5  1  0
  5  6  2  0
  6  7  1  0
  7  8  1  0
  7  9  1  0
  8  2  1  0
  9  4  1  0
  3 10  1  0
  3 11  1  0
  4 12  1  0
  5 13  1  0
  6 14  1  0
  7 15  1  0
  8 16  1  0
  8 17  1  0
M  END
