
     RDKit          3D

 17 18  0  0  0  0  0  0  0  0999 V2000
    0.5785    2.9148   -0.6179 O   0  0  0  0  0  0  0  0  0  0  0  0
    0.5158    1.7105   -0.2526 C   0  0  0  0  0  0  0  0  0  0  0  0
   -0.8363    1.1457   -0.2334 C   0  0  0  0  0  0  0  0  0  0  0  0
   -1.0071   -0.0882    0.5562 C   0  0  0  0  0  0  0  0  0  0  0  0
   -1.4117   -1.3341   -0.2789 C   0  0  0  0  0  0  0  0  0  0  0  0
   -0.0556   -1.1604    0.3943 C   0  0  0  0  0  0  0  0  0  0  0  0
    0.9840   -0.9965   -0.4670 O   0  0  0  0  0  0  0  0  0  0  0  0
    2.0371   -0.2451    0.0244 C   0  0  0  0  0  0  0  0  0  0  0  0
    1.7476    1.1408    0.0653 O   0  0  0  0  0  0  0  0  0  0  0  0
   -1.4967    1.9420    0.2255 H   0  0  0  0  0  0  0  0  0  0  0  0
   -1.2666    1.0290   -1.2714 H   0  0  0  0  0  0  0  0  0  0  0  0
   -1.5513   -0.0270    1.5443 H   0  0  0  0  0  0  0  0  0  0  0  0
   -1.4701   -1.2065   -1.3707 H   0  0  0  0  0  0  0  0  0  0  0  0
   -2.1542   -2.0042    0.1624 H   0  0  0  0  0  0  0  0  0  0  0  0
    0.0821   -1.8770    1.2433 H   0  0  0  0  0  0  0  0  0  0  0  0
    2.4247   -0.5777    0.9884 H   0  0  0  0  0  0  0  0  0  0  0  0
    2.8800   -0.3659   -0.7124 H   0  0  0  0  0  0  0  0  0  0  0  0
  1  2  2  0
  2  3  1  0
  3  4  1  0
  4  5  1  0
  5  6  1  0
  6  7  1  0
  7  8  1  0
  8  9  1  0
  9  2  1  0
  6  4  1  0
  3 10  1  0
  3 11  1  0
  4 12  1  0
  5 13  1  0
  5 14  1  0
  6 15  1  0
  8 16  1  0
  8 17  1  0
M  END
