
     RDKit          3D

 17 19  0  0  0  0  0  0  0  0999 V2000
    0.1573    2.5339    0.2898 O   0  0  0  0  0  0  0  0  0  0  0  0
    0.0083    1.3605    0.0647 C   0  0  0  0  0  0  0  0  0  0  0  0
   -1.2758    0.6447   -0.0151 C   0  0  0  0  0  0  0  0  0  0  0  0
   -0.9452   -0.6715    0.7030 C   0  0  0  0  0  0  0  0  0  0  0  0
    0.0318   -0.8523   -0.4642 C   0  0  0  0  0  0  0  0  0  0  0  0
   -1.0788   -0.1784   -1.2884 C   0  0  0  0  0  0  0  0  0  0  0  0
    0.9709    0.2548   -0.2004 C   0  0  0  0  0  0  0  0  0  0  0  0
    2.0715   -0.0370    0.7759 C   0  0  0  0  0  0  0  0  0  0  0  0
    2.2242    0.3973   -0.5728 O   0  0  0  0  0  0  0  0  0  0  0  0
   -2.1951    1.1056    0.1658 H   0  0  0  0  0  0  0  0  0  0  0  0
   -1.7569   -1.3956    0.7238 H   0  0  0  0  0  0  0  0  0  0  0  0
   -0.3764   -0.5084    1.6367 H   0  0  0  0  0  0  0  0  0  0  0  0
    0.3272   -1.8275   -0.7291 H   0  0  0  0  0  0  0  0  0  0  0  0
   -0.7080    0.3898   -2.1531 H   0  0  0  0  0  0  0  0  0  0  0  0
   -1.9476   -0.8350   -1.4679 H   0  0  0  0  0  0  0  0  0  0  0  0
    2.1843    0.7185    1.5705 H   0  0  0  0  0  0  0  0  0  0  0  0
    2.3081   -1.0995    0.9607 H   0  0  0  0  0  0  0  0  0  0  0  0
  1  2  2  0
  2  3  1  0
  3  4  1  0
  4  5  1  0
  5  6  1  0
  5  7  1  0
  7  8  1  0
  8  9  1  0
  7  2  1  0
  6  3  1  0
  9  7  1  0
  3 10  1  0
  4 11  1  0
  4 12  1  0
  5 13  1  0
  6 14  1  0
  6 15  1  0
  8 16  1  0
  8 17  1  0
M  END
