
     RDKit          3D

 19 21  0  0  0  0  0  0  0  0999 V2000
    2.6286    1.1676    0.5224 O   0  0  0  0  0  0  0  0  0  0  0  0
    1.7219    0.5428    0.0465 C   0  0  0  0  0  0  0  0  0  0  0  0
    0.7428    1.0163   -0.9759 C   0  0  0  0  0  0  0  0  0  0  0  0
   -0.5279    0.2936   -0.6811 C   0  0  0  0  0  0  0  0  0  0  0  0
   -1.4851    0.8235    0.3648 C   0  0  0  0  0  0  0  0  0  0  0  0
   -0.8985   -0.1778    1.3335 C   0  0  0  0  0  0  0  0  0  0  0  0
   -0.1570   -0.8457    0.2223 C   0  0  0  0  0  0  0  0  0  0  0  0
    1.3414   -0.8581    0.3511 C   0  0  0  0  0  0  0  0  0  0  0  0
   -0.7680   -1.1055   -1.0953 C   0  0  0  0  0  0  0  0  0  0  0  0
    0.5659    2.1047   -0.8091 H   0  0  0  0  0  0  0  0  0  0  0  0
    1.0724    0.7995   -1.9954 H   0  0  0  0  0  0  0  0  0  0  0  0
   -1.2787    1.8800    0.5751 H   0  0  0  0  0  0  0  0  0  0  0  0
   -2.5343    0.6161    0.0603 H   0  0  0  0  0  0  0  0  0  0  0  0
   -0.2509    0.2680    2.1096 H   0  0  0  0  0  0  0  0  0  0  0  0
   -1.6118   -0.8693    1.8035 H   0  0  0  0  0  0  0  0  0  0  0  0
    1.5798   -1.0653    1.4342 H   0  0  0  0  0  0  0  0  0  0  0  0
    1.8413   -1.5902   -0.2863 H   0  0  0  0  0  0  0  0  0  0  0  0
   -1.8402   -1.4055   -1.1391 H   0  0  0  0  0  0  0  0  0  0  0  0
   -0.1418   -1.5947   -1.8410 H   0  0  0  0  0  0  0  0  0  0  0  0
  1  2  2  0
  2  3  1  0
  3  4  1  0
  4  5  1  0
  5  6  1  0
  6  7  1  0
  7  8  1  0
  7  9  1  0
  8  2  1  0
  7  4  1  0
  9  4  1  0
  3 10  1  0
  3 11  1  0
  5 12  1  0
  5 13  1  0
  6 14  1  0
  6 15  1  0
  8 16  1  0
  8 17  1  0
  9 18  1  0
  9 19  1  0
M  END
