
     RDKit          3D

 16 17  0  0  0  0  0  0  0  0999 V2000
   -0.0469    2.4586   -0.2288 O   0  0  0  0  0  0  0  0  0  0  0  0
   -0.3640    1.2929   -0.1750 C   0  0  0  0  0  0  0  0  0  0  0  0
   -1.5920    0.5762   -0.6893 C   0  0  0  0  0  0  0  0  0  0  0  0
   -1.3423   -0.4213    0.4555 C   0  0  0  0  0  0  0  0  0  0  0  0
    0.0640   -0.0224    0.3021 C   0  0  0  0  0  0  0  0  0  0  0  0
    1.1930   -0.3405    1.0973 C   0  0  0  0  0  0  0  0  0  0  0  0
    1.0977   -0.8276   -0.3601 C   0  0  0  0  0  0  0  0  0  0  0  0
    1.8633   -0.2053   -1.3144 O   0  0  0  0  0  0  0  0  0  0  0  0
   -1.3799    0.0412   -1.6421 H   0  0  0  0  0  0  0  0  0  0  0  0
   -2.5171    1.1339   -0.6212 H   0  0  0  0  0  0  0  0  0  0  0  0
   -1.5646   -1.4536    0.1892 H   0  0  0  0  0  0  0  0  0  0  0  0
   -1.8733   -0.0235    1.3598 H   0  0  0  0  0  0  0  0  0  0  0  0
    1.1142   -1.1619    1.8615 H   0  0  0  0  0  0  0  0  0  0  0  0
    2.0333    0.3530    1.2443 H   0  0  0  0  0  0  0  0  0  0  0  0
    0.8509   -1.8973   -0.5247 H   0  0  0  0  0  0  0  0  0  0  0  0
    2.4638    0.4977   -0.9544 H   0  0  0  0  0  0  0  0  0  0  0  0
  1  2  2  0
  2  3  1  0
  3  4  1  0
  4  5  1  0
  5  6  1  0
  6  7  1  0
  7  8  1  0
  5  2  1  0
  7  5  1  0
  3  9  1  0
  3 10  1  0
  4 11  1  0
  4 12  1  0
  6 13  1  0
  6 14  1  0
  7 15  1  0
  8 16  1  0
M  END
