
     RDKit          3D

 17 17  0  0  0  0  0  0  0  0999 V2000
   -2.4940    1.9064    0.7255 O   0  0  0  0  0  0  0  0  0  0  0  0
   -1.7131    0.9823    0.4565 C   0  0  0  0  0  0  0  0  0  0  0  0
   -0.2624    1.1220    0.5483 C   0  0  0  0  0  0  0  0  0  0  0  0
    0.4603    0.1973   -0.0646 C   0  0  0  0  0  0  0  0  0  0  0  0
    1.9526    0.3397    0.0290 C   0  0  0  0  0  0  0  0  0  0  0  0
    2.4933   -0.7917    0.6478 O   0  0  0  0  0  0  0  0  0  0  0  0
   -0.1327   -0.9261   -0.8085 C   0  0  0  0  0  0  0  0  0  0  0  0
   -1.4415   -0.6568   -1.1515 O   0  0  0  0  0  0  0  0  0  0  0  0
   -2.1891   -0.3755    0.0082 C   0  0  0  0  0  0  0  0  0  0  0  0
    0.1689    1.9473    1.0949 H   0  0  0  0  0  0  0  0  0  0  0  0
    2.3802    0.4934   -0.9813 H   0  0  0  0  0  0  0  0  0  0  0  0
    2.2436    1.2109    0.6479 H   0  0  0  0  0  0  0  0  0  0  0  0
    3.3872   -0.9265    0.2282 H   0  0  0  0  0  0  0  0  0  0  0  0
   -0.1088   -1.8799   -0.2430 H   0  0  0  0  0  0  0  0  0  0  0  0
    0.4129   -1.1359   -1.7642 H   0  0  0  0  0  0  0  0  0  0  0  0
   -3.2620   -0.3754   -0.1628 H   0  0  0  0  0  0  0  0  0  0  0  0
   -1.8953   -1.1313    0.7896 H   0  0  0  0  0  0  0  0  0  0  0  0
  1  2  2  0
  2  3  1  0
  3  4  2  0
  4  5  1  0
  5  6  1  0
  4  7  1  0
  7  8  1  0
  8  9  1  0
  9  2  1  0
  3 10  1  0
  5 11  1  0
  5 12  1  0
  6 13  1  0
  7 14  1  0
  7 15  1  0
  9 16  1  0
  9 17  1  0
M  END
