
     RDKit          3D

 16 17  0  0  0  0  0  0  0  0999 V2000
   -2.7472   -1.0043   -1.0754 O   0  0  0  0  0  0  0  0  0  0  0  0
   -1.6788   -0.6890   -0.6295 C   0  0  0  0  0  0  0  0  0  0  0  0
   -0.4219   -1.3438   -0.2080 C   0  0  0  0  0  0  0  0  0  0  0  0
    0.0967   -0.0574    0.3920 C   0  0  0  0  0  0  0  0  0  0  0  0
    1.5004    0.3772    0.1576 C   0  0  0  0  0  0  0  0  0  0  0  0
    1.8142    0.5716   -1.1861 O   0  0  0  0  0  0  0  0  0  0  0  0
   -0.8103    0.8288    1.1710 C   0  0  0  0  0  0  0  0  0  0  0  0
   -1.0598    0.6025   -0.2598 C   0  0  0  0  0  0  0  0  0  0  0  0
   -0.5188   -2.1915    0.4844 H   0  0  0  0  0  0  0  0  0  0  0  0
    0.1833   -1.5832   -1.1298 H   0  0  0  0  0  0  0  0  0  0  0  0
    1.6720    1.3214    0.7087 H   0  0  0  0  0  0  0  0  0  0  0  0
    2.1758   -0.3876    0.6235 H   0  0  0  0  0  0  0  0  0  0  0  0
    2.5842   -0.0384   -1.4134 H   0  0  0  0  0  0  0  0  0  0  0  0
   -1.4688    0.3928    1.9522 H   0  0  0  0  0  0  0  0  0  0  0  0
   -0.3949    1.8126    1.4386 H   0  0  0  0  0  0  0  0  0  0  0  0
   -0.9262    1.3884   -1.0258 H   0  0  0  0  0  0  0  0  0  0  0  0
  1  2  2  0
  2  3  1  0
  3  4  1  0
  4  5  1  0
  5  6  1  0
  4  7  1  0
  7  8  1  0
  8  2  1  0
  8  4  1  0
  3  9  1  0
  3 10  1  0
  5 11  1  0
  5 12  1  0
  6 13  1  0
  7 14  1  0
  7 15  1  0
  8 16  1  0
M  END
