
     RDKit          3D

 17 18  0  0  0  0  0  0  0  0999 V2000
    3.3235   -0.5113   -1.1258 O   0  0  0  0  0  0  0  0  0  0  0  0
    2.2191   -0.2253   -0.6151 C   0  0  0  0  0  0  0  0  0  0  0  0
    1.0861   -1.1375   -0.6611 C   0  0  0  0  0  0  0  0  0  0  0  0
   -0.0636   -0.8200   -0.1150 C   0  0  0  0  0  0  0  0  0  0  0  0
   -1.4923   -1.1495    0.2138 C   0  0  0  0  0  0  0  0  0  0  0  0
   -1.6649    0.3792    0.4128 C   0  0  0  0  0  0  0  0  0  0  0  0
   -0.1765    0.4480    0.6408 C   0  0  0  0  0  0  0  0  0  0  0  0
    0.6102    1.5013   -0.0547 C   0  0  0  0  0  0  0  0  0  0  0  0
    1.9829    1.0053    0.0469 O   0  0  0  0  0  0  0  0  0  0  0  0
    1.1599   -2.1138   -1.1521 H   0  0  0  0  0  0  0  0  0  0  0  0
   -2.1149   -1.4597   -0.6361 H   0  0  0  0  0  0  0  0  0  0  0  0
   -1.6121   -1.7330    1.1300 H   0  0  0  0  0  0  0  0  0  0  0  0
   -2.0413    0.9041   -0.4695 H   0  0  0  0  0  0  0  0  0  0  0  0
   -2.2054    0.5232    1.3708 H   0  0  0  0  0  0  0  0  0  0  0  0
    0.1384    0.3418    1.7038 H   0  0  0  0  0  0  0  0  0  0  0  0
    0.5518    2.4958    0.4124 H   0  0  0  0  0  0  0  0  0  0  0  0
    0.2993    1.5514   -1.1016 H   0  0  0  0  0  0  0  0  0  0  0  0
  1  2  2  0
  2  3  1  0
  3  4  2  0
  4  5  1  0
  5  6  1  0
  6  7  1  0
  7  8  1  0
  8  9  1  0
  9  2  1  0
  7  4  1  0
  3 10  1  0
  5 11  1  0
  5 12  1  0
  6 13  1  0
  6 14  1  0
  7 15  1  0
  8 16  1  0
  8 17  1  0
M  END
