
     RDKit          3D

 21 22  0  0  0  0  0  0  0  0999 V2000
    2.7867   -1.6929    0.6834 O   0  0  0  0  0  0  0  0  0  0  0  0
    1.9998   -0.8623    0.2893 C   0  0  0  0  0  0  0  0  0  0  0  0
    2.3907    0.4383   -0.3121 C   0  0  0  0  0  0  0  0  0  0  0  0
    1.0489    0.9466   -0.8647 C   0  0  0  0  0  0  0  0  0  0  0  0
    0.1087    0.4607    0.1698 C   0  0  0  0  0  0  0  0  0  0  0  0
   -1.3401    0.5822   -0.1767 C   0  0  0  0  0  0  0  0  0  0  0  0
   -2.2653    0.0639    0.9307 C   0  0  0  0  0  0  0  0  0  0  0  0
   -2.2094   -0.5847   -0.4059 C   0  0  0  0  0  0  0  0  0  0  0  0
    0.5277   -1.0002    0.3393 C   0  0  0  0  0  0  0  0  0  0  0  0
    2.6891    1.1816    0.4758 H   0  0  0  0  0  0  0  0  0  0  0  0
    3.1515    0.3595   -1.0844 H   0  0  0  0  0  0  0  0  0  0  0  0
    0.8556    0.4255   -1.8449 H   0  0  0  0  0  0  0  0  0  0  0  0
    1.1179    2.0304   -0.9859 H   0  0  0  0  0  0  0  0  0  0  0  0
    0.3350    0.9496    1.1402 H   0  0  0  0  0  0  0  0  0  0  0  0
   -1.6571    1.5414   -0.6204 H   0  0  0  0  0  0  0  0  0  0  0  0
   -1.8320   -0.5024    1.7615 H   0  0  0  0  0  0  0  0  0  0  0  0
   -3.1247    0.6956    1.2243 H   0  0  0  0  0  0  0  0  0  0  0  0
   -1.8285   -1.6188   -0.4803 H   0  0  0  0  0  0  0  0  0  0  0  0
   -3.1151   -0.4281   -1.0447 H   0  0  0  0  0  0  0  0  0  0  0  0
    0.2116   -1.6242   -0.5035 H   0  0  0  0  0  0  0  0  0  0  0  0
    0.1490   -1.3617    1.3090 H   0  0  0  0  0  0  0  0  0  0  0  0
  1  2  2  0
  2  3  1  0
  3  4  1  0
  4  5  1  0
  5  6  1  0
  6  7  1  0
  7  8  1  0
  5  9  1  0
  9  2  1  0
  8  6  1  0
  3 10  1  0
  3 11  1  0
  4 12  1  0
  4 13  1  0
  5 14  1  0
  6 15  1  0
  7 16  1  0
  7 17  1  0
  8 18  1  0
  8 19  1  0
  9 20  1  0
  9 21  1  0
M  END
