
     RDKit          3D

 17 19  0  0  0  0  0  0  0  0999 V2000
   -2.1919    2.0846   -0.8479 O   0  0  0  0  0  0  0  0  0  0  0  0
   -1.5577    1.1479   -0.3953 C   0  0  0  0  0  0  0  0  0  0  0  0
   -0.6982    1.0197    0.8039 C   0  0  0  0  0  0  0  0  0  0  0  0
   -0.1980   -0.2886    0.2029 C   0  0  0  0  0  0  0  0  0  0  0  0
    1.1483   -0.3645   -0.4110 C   0  0  0  0  0  0  0  0  0  0  0  0
    2.3934   -0.0895    0.3185 C   0  0  0  0  0  0  0  0  0  0  0  0
    1.7921    0.9369   -0.4591 O   0  0  0  0  0  0  0  0  0  0  0  0
   -1.2021   -1.3498    0.1330 C   0  0  0  0  0  0  0  0  0  0  0  0
   -1.3676   -0.2404   -0.8282 C   0  0  0  0  0  0  0  0  0  0  0  0
    0.0910    1.7782    0.9207 H   0  0  0  0  0  0  0  0  0  0  0  0
   -1.2850    0.8094    1.7289 H   0  0  0  0  0  0  0  0  0  0  0  0
    1.2565   -0.8446   -1.4188 H   0  0  0  0  0  0  0  0  0  0  0  0
    3.3266   -0.5412   -0.0581 H   0  0  0  0  0  0  0  0  0  0  0  0
    2.3703    0.1500    1.3966 H   0  0  0  0  0  0  0  0  0  0  0  0
   -1.8755   -1.4277    1.0368 H   0  0  0  0  0  0  0  0  0  0  0  0
   -0.9001   -2.3220   -0.2444 H   0  0  0  0  0  0  0  0  0  0  0  0
   -1.1020   -0.4585   -1.8786 H   0  0  0  0  0  0  0  0  0  0  0  0
  1  2  2  0
  2  3  1  0
  3  4  1  0
  4  5  1  0
  5  6  1  0
  6  7  1  0
  4  8  1  0
  8  9  1  0
  9  2  1  0
  9  4  1  0
  7  5  1  0
  3 10  1  0
  3 11  1  0
  5 12  1  0
  6 13  1  0
  6 14  1  0
  8 15  1  0
  8 16  1  0
  9 17  1  0
M  END
