
     RDKit          3D

 17 18  0  0  0  0  0  0  0  0999 V2000
   -0.8306   -2.0952    1.5006 O   0  0  0  0  0  0  0  0  0  0  0  0
   -0.5800   -1.4633    0.4952 C   0  0  0  0  0  0  0  0  0  0  0  0
    0.6362   -1.2431   -0.3037 C   0  0  0  0  0  0  0  0  0  0  0  0
    1.5508   -0.2428    0.3808 C   0  0  0  0  0  0  0  0  0  0  0  0
    1.1255    1.1247   -0.0178 C   0  0  0  0  0  0  0  0  0  0  0  0
   -0.1152    1.5744   -0.0317 C   0  0  0  0  0  0  0  0  0  0  0  0
   -1.4229    0.8220   -0.0333 C   0  0  0  0  0  0  0  0  0  0  0  0
   -1.2300   -0.5961   -0.4898 C   0  0  0  0  0  0  0  0  0  0  0  0
   -0.0833   -0.6090   -1.3173 O   0  0  0  0  0  0  0  0  0  0  0  0
    1.1700   -2.1543   -0.6418 H   0  0  0  0  0  0  0  0  0  0  0  0
    2.5958   -0.4684    0.1358 H   0  0  0  0  0  0  0  0  0  0  0  0
    1.4378   -0.2963    1.4891 H   0  0  0  0  0  0  0  0  0  0  0  0
    1.9248    1.7881   -0.3183 H   0  0  0  0  0  0  0  0  0  0  0  0
   -0.1926    2.6561   -0.0438 H   0  0  0  0  0  0  0  0  0  0  0  0
   -1.8279    0.9092    0.9916 H   0  0  0  0  0  0  0  0  0  0  0  0
   -2.0535    1.3351   -0.7935 H   0  0  0  0  0  0  0  0  0  0  0  0
   -2.1049   -1.0409   -1.0022 H   0  0  0  0  0  0  0  0  0  0  0  0
  1  2  2  0
  2  3  1  0
  3  4  1  0
  4  5  1  0
  5  6  2  0
  6  7  1  0
  7  8  1  0
  8  9  1  0
  8  2  1  0
  9  3  1  0
  3 10  1  0
  4 11  1  0
  4 12  1  0
  5 13  1  0
  6 14  1  0
  7 15  1  0
  7 16  1  0
  8 17  1  0
M  END
