
     RDKit          3D

 19 20  0  0  0  0  0  0  0  0999 V2000
    1.6226   -1.6184   -1.4325 O   0  0  0  0  0  0  0  0  0  0  0  0
    1.4035   -0.8860   -0.5243 C   0  0  0  0  0  0  0  0  0  0  0  0
    2.3156    0.1120    0.0690 C   0  0  0  0  0  0  0  0  0  0  0  0
    1.3478    1.2334    0.3243 C   0  0  0  0  0  0  0  0  0  0  0  0
    0.1308    0.7498    0.4307 C   0  0  0  0  0  0  0  0  0  0  0  0
   -1.3213    0.9719    0.6471 C   0  0  0  0  0  0  0  0  0  0  0  0
   -1.8723    0.1901   -0.5270 C   0  0  0  0  0  0  0  0  0  0  0  0
   -1.1008   -1.1020   -0.4280 C   0  0  0  0  0  0  0  0  0  0  0  0
    0.1714   -0.7660    0.2612 C   0  0  0  0  0  0  0  0  0  0  0  0
    2.6872   -0.2941    1.0195 H   0  0  0  0  0  0  0  0  0  0  0  0
    3.1261    0.4250   -0.6144 H   0  0  0  0  0  0  0  0  0  0  0  0
    1.6511    2.2678    0.4013 H   0  0  0  0  0  0  0  0  0  0  0  0
   -1.5972    2.0409    0.6051 H   0  0  0  0  0  0  0  0  0  0  0  0
   -1.6313    0.4656    1.5732 H   0  0  0  0  0  0  0  0  0  0  0  0
   -1.5679    0.7507   -1.4418 H   0  0  0  0  0  0  0  0  0  0  0  0
   -2.9665    0.0510   -0.4637 H   0  0  0  0  0  0  0  0  0  0  0  0
   -1.6858   -1.7856    0.2448 H   0  0  0  0  0  0  0  0  0  0  0  0
   -0.9560   -1.5831   -1.4153 H   0  0  0  0  0  0  0  0  0  0  0  0
    0.2430   -1.2230    1.2706 H   0  0  0  0  0  0  0  0  0  0  0  0
  1  2  2  0
  2  3  1  0
  3  4  1  0
  4  5  2  0
  5  6  1  0
  6  7  1  0
  7  8  1  0
  8  9  1  0
  9  2  1  0
  9  5  1  0
  3 10  1  0
  3 11  1  0
  4 12  1  0
  6 13  1  0
  6 14  1  0
  7 15  1  0
  7 16  1  0
  8 17  1  0
  8 18  1  0
  9 19  1  0
M  END
