
     RDKit          3D

 19 20  0  0  0  0  0  0  0  0999 V2000
    1.1593    2.0984   -1.1219 O   0  0  0  0  0  0  0  0  0  0  0  0
    1.0118    1.0683   -0.4941 C   0  0  0  0  0  0  0  0  0  0  0  0
    1.9334   -0.0688   -0.4876 C   0  0  0  0  0  0  0  0  0  0  0  0
    1.0232   -1.2355   -0.1129 C   0  0  0  0  0  0  0  0  0  0  0  0
   -0.0554   -0.6742    0.7608 C   0  0  0  0  0  0  0  0  0  0  0  0
   -1.4606   -0.8447    0.2808 C   0  0  0  0  0  0  0  0  0  0  0  0
   -1.4333    0.5182   -0.3598 C   0  0  0  0  0  0  0  0  0  0  0  0
   -2.4078    1.4032    0.0548 O   0  0  0  0  0  0  0  0  0  0  0  0
   -0.1304    0.7798    0.3788 C   0  0  0  0  0  0  0  0  0  0  0  0
    2.4531   -0.2201   -1.4333 H   0  0  0  0  0  0  0  0  0  0  0  0
    2.6453    0.0730    0.3634 H   0  0  0  0  0  0  0  0  0  0  0  0
    1.6670   -1.9733    0.4015 H   0  0  0  0  0  0  0  0  0  0  0  0
    0.6768   -1.6802   -1.0413 H   0  0  0  0  0  0  0  0  0  0  0  0
    0.1239   -0.8154    1.8414 H   0  0  0  0  0  0  0  0  0  0  0  0
   -2.1569   -0.9210    1.1648 H   0  0  0  0  0  0  0  0  0  0  0  0
   -1.5671   -1.6951   -0.4236 H   0  0  0  0  0  0  0  0  0  0  0  0
   -1.2808    0.5203   -1.4526 H   0  0  0  0  0  0  0  0  0  0  0  0
   -1.9789    2.2353    0.4256 H   0  0  0  0  0  0  0  0  0  0  0  0
   -0.2226    1.4319    1.2553 H   0  0  0  0  0  0  0  0  0  0  0  0
  1  2  2  0
  2  3  1  0
  3  4  1  0
  4  5  1  0
  5  6  1  0
  6  7  1  0
  7  8  1  0
  7  9  1  0
  9  2  1  0
  9  5  1  0
  3 10  1  0
  3 11  1  0
  4 12  1  0
  4 13  1  0
  5 14  1  0
  6 15  1  0
  6 16  1  0
  7 17  1  0
  8 18  1  0
  9 19  1  0
M  END
