
     RDKit          3D

 19 20  0  0  0  0  0  0  0  0999 V2000
   -1.5269    2.0268   -1.1411 O   0  0  0  0  0  0  0  0  0  0  0  0
   -1.7537    1.0453   -0.3575 C   0  0  0  0  0  0  0  0  0  0  0  0
   -2.4637    0.9101    0.8361 O   0  0  0  0  0  0  0  0  0  0  0  0
   -2.4756   -0.4884    0.6101 C   0  0  0  0  0  0  0  0  0  0  0  0
   -1.3422   -0.3551   -0.4153 C   0  0  0  0  0  0  0  0  0  0  0  0
    0.0095   -0.7016    0.1218 C   0  0  0  0  0  0  0  0  0  0  0  0
    1.1306    0.0108   -0.5874 C   0  0  0  0  0  0  0  0  0  0  0  0
    2.5237   -0.3384   -0.0431 C   0  0  0  0  0  0  0  0  0  0  0  0
    1.8895    1.0617    0.2378 C   0  0  0  0  0  0  0  0  0  0  0  0
   -2.1247   -1.0768    1.4786 H   0  0  0  0  0  0  0  0  0  0  0  0
   -3.4179   -0.8341    0.1376 H   0  0  0  0  0  0  0  0  0  0  0  0
   -1.6223   -0.8319   -1.3752 H   0  0  0  0  0  0  0  0  0  0  0  0
    0.1049   -0.5547    1.2041 H   0  0  0  0  0  0  0  0  0  0  0  0
    0.1642   -1.7965   -0.0656 H   0  0  0  0  0  0  0  0  0  0  0  0
    1.0839    0.1438   -1.6698 H   0  0  0  0  0  0  0  0  0  0  0  0
    2.5892   -1.0238    0.8126 H   0  0  0  0  0  0  0  0  0  0  0  0
    3.3710   -0.3062   -0.7779 H   0  0  0  0  0  0  0  0  0  0  0  0
    2.3385    1.9064   -0.2916 H   0  0  0  0  0  0  0  0  0  0  0  0
    1.5220    1.2026    1.2858 H   0  0  0  0  0  0  0  0  0  0  0  0
  1  2  2  0
  2  3  1  0
  3  4  1  0
  4  5  1  0
  5  6  1  0
  6  7  1  0
  7  8  1  0
  8  9  1  0
  5  2  1  0
  9  7  1  0
  4 10  1  0
  4 11  1  0
  5 12  1  0
  6 13  1  0
  6 14  1  0
  7 15  1  0
  8 16  1  0
  8 17  1  0
  9 18  1  0
  9 19  1  0
M  END
