
     RDKit          3D

 17 18  0  0  0  0  0  0  0  0999 V2000
    3.4379    0.0252    0.0932 O   0  0  0  0  0  0  0  0  0  0  0  0
    2.1930    0.0629    0.0395 C   0  0  0  0  0  0  0  0  0  0  0  0
    1.2419   -1.0706    0.2706 C   0  0  0  0  0  0  0  0  0  0  0  0
    0.0721   -0.4967   -0.3585 C   0  0  0  0  0  0  0  0  0  0  0  0
   -1.3141   -0.7256    0.0653 C   0  0  0  0  0  0  0  0  0  0  0  0
   -1.9007    0.5616   -0.5155 C   0  0  0  0  0  0  0  0  0  0  0  0
   -0.9762    1.5192   -0.4145 C   0  0  0  0  0  0  0  0  0  0  0  0
    0.1829    0.9469    0.1986 C   0  0  0  0  0  0  0  0  0  0  0  0
    1.4679    1.2171   -0.2570 O   0  0  0  0  0  0  0  0  0  0  0  0
    1.5920   -2.0006   -0.2231 H   0  0  0  0  0  0  0  0  0  0  0  0
    1.1537   -1.2834    1.3550 H   0  0  0  0  0  0  0  0  0  0  0  0
    0.1520   -0.4673   -1.4370 H   0  0  0  0  0  0  0  0  0  0  0  0
   -1.7885   -1.5708   -0.4667 H   0  0  0  0  0  0  0  0  0  0  0  0
   -1.5119   -0.8004    1.1295 H   0  0  0  0  0  0  0  0  0  0  0  0
   -2.9010    0.6363   -0.9277 H   0  0  0  0  0  0  0  0  0  0  0  0
   -1.2064    2.5238   -0.7808 H   0  0  0  0  0  0  0  0  0  0  0  0
    0.1054    0.9225    1.3029 H   0  0  0  0  0  0  0  0  0  0  0  0
  1  2  2  0
  2  3  1  0
  3  4  1  0
  4  5  1  0
  5  6  1  0
  6  7  2  0
  7  8  1  0
  8  9  1  0
  9  2  1  0
  8  4  1  0
  3 10  1  0
  3 11  1  0
  4 12  1  0
  5 13  1  0
  5 14  1  0
  6 15  1  0
  7 16  1  0
  8 17  1  0
M  END
