
     RDKit          3D

 17 18  0  0  0  0  0  0  0  0999 V2000
   -0.8894   -1.5344   -2.0160 O   0  0  0  0  0  0  0  0  0  0  0  0
   -0.8213   -0.9794   -0.9381 C   0  0  0  0  0  0  0  0  0  0  0  0
   -1.7334   -0.2428   -0.0557 C   0  0  0  0  0  0  0  0  0  0  0  0
   -1.8105    1.1099   -0.4084 O   0  0  0  0  0  0  0  0  0  0  0  0
   -0.8076   -0.5518    1.0836 C   0  0  0  0  0  0  0  0  0  0  0  0
    0.2898   -0.7858    0.0331 C   0  0  0  0  0  0  0  0  0  0  0  0
    1.1723    0.3461   -0.2847 C   0  0  0  0  0  0  0  0  0  0  0  0
    2.3262    1.1028    0.1001 C   0  0  0  0  0  0  0  0  0  0  0  0
    1.5957    0.5700    0.9505 O   0  0  0  0  0  0  0  0  0  0  0  0
   -2.7250   -0.7332   -0.0146 H   0  0  0  0  0  0  0  0  0  0  0  0
   -2.7458    1.3938   -0.5598 H   0  0  0  0  0  0  0  0  0  0  0  0
   -0.5907    0.2807    1.7662 H   0  0  0  0  0  0  0  0  0  0  0  0
   -1.0610   -1.4769    1.6131 H   0  0  0  0  0  0  0  0  0  0  0  0
    0.7895   -1.7871    0.1837 H   0  0  0  0  0  0  0  0  0  0  0  0
    1.3521    0.2815   -1.3299 H   0  0  0  0  0  0  0  0  0  0  0  0
    2.2558    2.2184   -0.0907 H   0  0  0  0  0  0  0  0  0  0  0  0
    3.4032    0.7882   -0.0325 H   0  0  0  0  0  0  0  0  0  0  0  0
  1  2  2  0
  2  3  1  0
  3  4  1  0
  3  5  1  0
  5  6  1  0
  6  7  1  0
  7  8  1  0
  8  9  1  0
  6  2  1  0
  9  7  1  0
  3 10  1  0
  4 11  1  0
  5 12  1  0
  5 13  1  0
  6 14  1  0
  7 15  1  0
  8 16  1  0
  8 17  1  0
M  END
