
     RDKit          3D

 14 17  0  0  0  0  0  0  0  0999 V2000
   -2.5891    0.7179   -0.2919 O   0  0  0  0  0  0  0  0  0  0  0  0
   -1.4312    0.3685   -0.1635 C   0  0  0  0  0  0  0  0  0  0  0  0
   -0.8059   -0.9388   -0.4985 C   0  0  0  0  0  0  0  0  0  0  0  0
    0.2727   -1.0742    0.4937 C   0  0  0  0  0  0  0  0  0  0  0  0
    0.5588   -0.5730   -0.8935 C   0  0  0  0  0  0  0  0  0  0  0  0
    0.8500    0.7662   -0.3318 C   0  0  0  0  0  0  0  0  0  0  0  0
   -0.3557    1.2126    0.3783 C   0  0  0  0  0  0  0  0  0  0  0  0
    0.5671    0.2732    1.0258 C   0  0  0  0  0  0  0  0  0  0  0  0
   -1.3841   -1.7555   -0.9083 H   0  0  0  0  0  0  0  0  0  0  0  0
    0.6675   -1.9973    0.8781 H   0  0  0  0  0  0  0  0  0  0  0  0
    1.2097   -1.1294   -1.5435 H   0  0  0  0  0  0  0  0  0  0  0  0
    1.6857    1.3857   -0.6147 H   0  0  0  0  0  0  0  0  0  0  0  0
   -0.4861    2.2521    0.6345 H   0  0  0  0  0  0  0  0  0  0  0  0
    1.2404    0.4921    1.8353 H   0  0  0  0  0  0  0  0  0  0  0  0
  1  2  2  0
  2  3  1  0
  3  4  1  0
  4  5  1  0
  5  6  1  0
  6  7  1  0
  7  8  1  0
  7  2  1  0
  5  3  1  0
  8  6  1  0
  8  4  1  0
  3  9  1  0
  4 10  1  0
  5 11  1  0
  6 12  1  0
  7 13  1  0
  8 14  1  0
M  END
