
     RDKit          3D

 15 17  0  0  0  0  0  0  0  0999 V2000
    0.1110    0.8327   -2.4039 O   0  0  0  0  0  0  0  0  0  0  0  0
    0.1069    0.4518   -1.2806 C   0  0  0  0  0  0  0  0  0  0  0  0
   -0.2385    1.1624   -0.0244 C   0  0  0  0  0  0  0  0  0  0  0  0
    0.9964    0.8262    0.7685 C   0  0  0  0  0  0  0  0  0  0  0  0
    1.3809   -0.4002    0.3904 C   0  0  0  0  0  0  0  0  0  0  0  0
    0.4400   -0.8691   -0.6833 C   0  0  0  0  0  0  0  0  0  0  0  0
   -0.8686   -1.1429    0.0196 C   0  0  0  0  0  0  0  0  0  0  0  0
   -2.0230   -0.5054   -0.4017 O   0  0  0  0  0  0  0  0  0  0  0  0
   -1.3078    0.2395    0.5142 C   0  0  0  0  0  0  0  0  0  0  0  0
   -0.4755    2.1923   -0.0943 H   0  0  0  0  0  0  0  0  0  0  0  0
    1.4266    1.4991    1.4847 H   0  0  0  0  0  0  0  0  0  0  0  0
    2.2211   -0.9335    0.8008 H   0  0  0  0  0  0  0  0  0  0  0  0
    0.8105   -1.6166   -1.3345 H   0  0  0  0  0  0  0  0  0  0  0  0
   -0.9902   -2.0081    0.6703 H   0  0  0  0  0  0  0  0  0  0  0  0
   -1.5897    0.2717    1.5741 H   0  0  0  0  0  0  0  0  0  0  0  0
  1  2  2  0
  2  3  1  0
  3  4  1  0
  4  5  2  0
  5  6  1  0
  6  7  1  0
  7  8  1  0
  8  9  1  0
  6  2  1  0
  9  7  1  0
  9  3  1  0
  3 10  1  0
  4 11  1  0
  5 12  1  0
  6 13  1  0
  7 14  1  0
  9 15  1  0
M  END
