
     RDKit          3D

 17 18  0  0  0  0  0  0  0  0999 V2000
   -1.9126    2.1535    0.9483 O   0  0  0  0  0  0  0  0  0  0  0  0
   -1.4673    1.2601    0.1489 C   0  0  0  0  0  0  0  0  0  0  0  0
   -1.4059   -0.1939    0.4468 C   0  0  0  0  0  0  0  0  0  0  0  0
   -0.3432   -0.6796   -0.4901 C   0  0  0  0  0  0  0  0  0  0  0  0
    0.9216   -1.1167    0.2238 C   0  0  0  0  0  0  0  0  0  0  0  0
    1.5354    0.2367    0.5397 C   0  0  0  0  0  0  0  0  0  0  0  0
    1.1728    1.0978   -0.4569 O   0  0  0  0  0  0  0  0  0  0  0  0
    0.1687    0.5625   -1.2063 C   0  0  0  0  0  0  0  0  0  0  0  0
   -0.9552    1.4044   -1.1307 O   0  0  0  0  0  0  0  0  0  0  0  0
   -1.1584   -0.3786    1.5179 H   0  0  0  0  0  0  0  0  0  0  0  0
   -2.4086   -0.6279    0.1784 H   0  0  0  0  0  0  0  0  0  0  0  0
   -0.7229   -1.4386   -1.1811 H   0  0  0  0  0  0  0  0  0  0  0  0
    0.7270   -1.7199    1.1061 H   0  0  0  0  0  0  0  0  0  0  0  0
    1.5606   -1.6031   -0.5378 H   0  0  0  0  0  0  0  0  0  0  0  0
    2.6385    0.1441    0.5819 H   0  0  0  0  0  0  0  0  0  0  0  0
    1.1996    0.5939    1.5554 H   0  0  0  0  0  0  0  0  0  0  0  0
    0.4500    0.3053   -2.2442 H   0  0  0  0  0  0  0  0  0  0  0  0
  1  2  2  0
  2  3  1  0
  3  4  1  0
  4  5  1  0
  5  6  1  0
  6  7  1  0
  7  8  1  0
  8  9  1  0
  9  2  1  0
  8  4  1  0
  3 10  1  0
  3 11  1  0
  4 12  1  0
  5 13  1  0
  5 14  1  0
  6 15  1  0
  6 16  1  0
  8 17  1  0
M  END
