
     RDKit          3D

 17 18  0  0  0  0  0  0  0  0999 V2000
    1.7451    2.0771   -1.0525 O   0  0  0  0  0  0  0  0  0  0  0  0
    1.1615    1.0723   -0.5930 C   0  0  0  0  0  0  0  0  0  0  0  0
    1.9357    0.1151    0.1786 C   0  0  0  0  0  0  0  0  0  0  0  0
    1.3434   -0.9957    0.6114 C   0  0  0  0  0  0  0  0  0  0  0  0
   -0.0670   -1.3144    0.3504 C   0  0  0  0  0  0  0  0  0  0  0  0
   -0.9066   -0.2607   -0.2271 C   0  0  0  0  0  0  0  0  0  0  0  0
   -2.0371   -0.7546   -0.9242 O   0  0  0  0  0  0  0  0  0  0  0  0
   -1.1342    1.0610    0.3984 C   0  0  0  0  0  0  0  0  0  0  0  0
   -0.2618    0.8966   -0.8444 C   0  0  0  0  0  0  0  0  0  0  0  0
    2.9767    0.2305    0.4376 H   0  0  0  0  0  0  0  0  0  0  0  0
    1.9142   -1.7099    1.1851 H   0  0  0  0  0  0  0  0  0  0  0  0
   -0.4814   -1.7404    1.3113 H   0  0  0  0  0  0  0  0  0  0  0  0
   -0.0711   -2.1969   -0.3506 H   0  0  0  0  0  0  0  0  0  0  0  0
   -2.7554   -0.7860   -0.2411 H   0  0  0  0  0  0  0  0  0  0  0  0
   -0.6522    1.3477    1.3514 H   0  0  0  0  0  0  0  0  0  0  0  0
   -2.0791    1.6164    0.2118 H   0  0  0  0  0  0  0  0  0  0  0  0
   -0.6307    1.3418   -1.8033 H   0  0  0  0  0  0  0  0  0  0  0  0
  1  2  2  0
  2  3  1  0
  3  4  2  0
  4  5  1  0
  5  6  1  0
  6  7  1  0
  6  8  1  0
  8  9  1  0
  9  2  1  0
  9  6  1  0
  3 10  1  0
  4 11  1  0
  5 12  1  0
  5 13  1  0
  7 14  1  0
  8 15  1  0
  8 16  1  0
  9 17  1  0
M  END
