
     RDKit          3D

 17 18  0  0  0  0  0  0  0  0999 V2000
    2.9466    0.0131   -1.6381 O   0  0  0  0  0  0  0  0  0  0  0  0
    1.8711   -0.0295   -0.9872 C   0  0  0  0  0  0  0  0  0  0  0  0
    1.3504    1.1244   -0.4157 O   0  0  0  0  0  0  0  0  0  0  0  0
    0.2428    1.0647    0.4892 C   0  0  0  0  0  0  0  0  0  0  0  0
   -1.0682    0.9350   -0.2491 C   0  0  0  0  0  0  0  0  0  0  0  0
   -1.2011   -0.5435   -0.5523 C   0  0  0  0  0  0  0  0  0  0  0  0
    0.0066   -1.2130    0.0703 C   0  0  0  0  0  0  0  0  0  0  0  0
    0.2705   -0.2683    1.2427 C   0  0  0  0  0  0  0  0  0  0  0  0
    1.1322   -1.1887   -0.7867 O   0  0  0  0  0  0  0  0  0  0  0  0
    0.2624    1.8617    1.2274 H   0  0  0  0  0  0  0  0  0  0  0  0
   -1.8888    1.2947    0.4203 H   0  0  0  0  0  0  0  0  0  0  0  0
   -1.0533    1.5115   -1.2095 H   0  0  0  0  0  0  0  0  0  0  0  0
   -1.2675   -0.7524   -1.6220 H   0  0  0  0  0  0  0  0  0  0  0  0
   -2.1053   -0.9276   -0.0124 H   0  0  0  0  0  0  0  0  0  0  0  0
   -0.2221   -2.2276    0.3931 H   0  0  0  0  0  0  0  0  0  0  0  0
    1.2655   -0.3985    1.6690 H   0  0  0  0  0  0  0  0  0  0  0  0
   -0.5417   -0.2562    1.9611 H   0  0  0  0  0  0  0  0  0  0  0  0
  1  2  2  0
  2  3  1  0
  3  4  1  0
  4  5  1  0
  5  6  1  0
  6  7  1  0
  7  8  1  0
  7  9  1  0
  9  2  1  0
  8  4  1  0
  4 10  1  0
  5 11  1  0
  5 12  1  0
  6 13  1  0
  6 14  1  0
  7 15  1  0
  8 16  1  0
  8 17  1  0
M  END
