
     RDKit          3D

 19 19  0  0  0  0  0  0  0  0999 V2000
   -3.2978    0.8038   -0.0398 O   0  0  0  0  0  0  0  0  0  0  0  0
   -2.1659    0.3201    0.2327 C   0  0  0  0  0  0  0  0  0  0  0  0
   -1.3210    0.9912    1.2140 C   0  0  0  0  0  0  0  0  0  0  0  0
   -0.0122    0.9949    1.0155 C   0  0  0  0  0  0  0  0  0  0  0  0
    0.5412    0.3351   -0.1664 C   0  0  0  0  0  0  0  0  0  0  0  0
    2.0328    0.0797    0.0857 C   0  0  0  0  0  0  0  0  0  0  0  0
    2.6089   -0.5496   -1.0148 O   0  0  0  0  0  0  0  0  0  0  0  0
   -0.1551   -0.9019   -0.6131 C   0  0  0  0  0  0  0  0  0  0  0  0
   -1.6424   -0.9069   -0.3970 C   0  0  0  0  0  0  0  0  0  0  0  0
   -1.7736    1.4752    2.0850 H   0  0  0  0  0  0  0  0  0  0  0  0
    0.6182    1.4996    1.7548 H   0  0  0  0  0  0  0  0  0  0  0  0
    0.5206    1.0613   -1.0216 H   0  0  0  0  0  0  0  0  0  0  0  0
    2.0728   -0.5790    0.9822 H   0  0  0  0  0  0  0  0  0  0  0  0
    2.5426    1.0428    0.2409 H   0  0  0  0  0  0  0  0  0  0  0  0
    3.0790    0.1050   -1.5588 H   0  0  0  0  0  0  0  0  0  0  0  0
    0.0451   -1.0908   -1.7058 H   0  0  0  0  0  0  0  0  0  0  0  0
    0.3447   -1.7669   -0.0877 H   0  0  0  0  0  0  0  0  0  0  0  0
   -2.1742   -1.1704   -1.3330 H   0  0  0  0  0  0  0  0  0  0  0  0
   -1.8636   -1.7430    0.3271 H   0  0  0  0  0  0  0  0  0  0  0  0
  1  2  2  0
  2  3  1  0
  3  4  2  0
  4  5  1  0
  5  6  1  0
  6  7  1  0
  5  8  1  0
  8  9  1  0
  9  2  1  0
  3 10  1  0
  4 11  1  0
  5 12  1  0
  6 13  1  0
  6 14  1  0
  7 15  1  0
  8 16  1  0
  8 17  1  0
  9 18  1  0
  9 19  1  0
M  END
