
     RDKit          3D

 19 19  0  0  0  0  0  0  0  0999 V2000
    2.3961   -1.6394   -0.1039 O   0  0  0  0  0  0  0  0  0  0  0  0
    1.5183   -0.8576    0.1550 C   0  0  0  0  0  0  0  0  0  0  0  0
    1.9419    0.5404   -0.0348 C   0  0  0  0  0  0  0  0  0  0  0  0
    0.8422    1.3584   -0.6295 C   0  0  0  0  0  0  0  0  0  0  0  0
   -0.4833    1.4109   -0.5070 C   0  0  0  0  0  0  0  0  0  0  0  0
   -1.4652    0.6585    0.2953 C   0  0  0  0  0  0  0  0  0  0  0  0
   -1.7324   -0.7165   -0.2533 C   0  0  0  0  0  0  0  0  0  0  0  0
   -0.6270   -1.4792   -0.4548 O   0  0  0  0  0  0  0  0  0  0  0  0
    0.2718   -1.5128    0.5870 C   0  0  0  0  0  0  0  0  0  0  0  0
    2.1770    0.9539    0.9776 H   0  0  0  0  0  0  0  0  0  0  0  0
    2.8531    0.6246   -0.6636 H   0  0  0  0  0  0  0  0  0  0  0  0
    1.1964    2.0893   -1.3321 H   0  0  0  0  0  0  0  0  0  0  0  0
   -0.9053    2.1808   -1.1453 H   0  0  0  0  0  0  0  0  0  0  0  0
   -1.2036    0.6323    1.3874 H   0  0  0  0  0  0  0  0  0  0  0  0
   -2.4259    1.2184    0.2460 H   0  0  0  0  0  0  0  0  0  0  0  0
   -2.4837   -1.2081    0.3733 H   0  0  0  0  0  0  0  0  0  0  0  0
   -2.2255   -0.5608   -1.2566 H   0  0  0  0  0  0  0  0  0  0  0  0
   -0.1311   -1.0966    1.5359 H   0  0  0  0  0  0  0  0  0  0  0  0
    0.4863   -2.5965    0.8236 H   0  0  0  0  0  0  0  0  0  0  0  0
  1  2  2  0
  2  3  1  0
  3  4  1  0
  4  5  2  3
  5  6  1  0
  6  7  1  0
  7  8  1  0
  8  9  1  0
  9  2  1  0
  3 10  1  0
  3 11  1  0
  4 12  1  0
  5 13  1  0
  6 14  1  0
  6 15  1  0
  7 16  1  0
  7 17  1  0
  9 18  1  0
  9 19  1  0
M  END
