
     RDKit          3D

 15 16  0  0  0  0  0  0  0  0999 V2000
    2.4565    0.0918    1.4877 O   0  0  0  0  0  0  0  0  0  0  0  0
    1.4060    0.1769    0.8002 C   0  0  0  0  0  0  0  0  0  0  0  0
    0.6370    1.3636    0.3896 C   0  0  0  0  0  0  0  0  0  0  0  0
    0.8180    2.5804    0.6141 O   0  0  0  0  0  0  0  0  0  0  0  0
   -0.4488    0.7569   -0.3853 C   0  0  0  0  0  0  0  0  0  0  0  0
    0.3023   -0.2776   -1.2031 C   0  0  0  0  0  0  0  0  0  0  0  0
    0.5918   -0.8948    0.1738 C   0  0  0  0  0  0  0  0  0  0  0  0
   -0.8126   -0.4333    0.5140 C   0  0  0  0  0  0  0  0  0  0  0  0
   -1.8321   -1.2222    0.0142 O   0  0  0  0  0  0  0  0  0  0  0  0
   -1.2200    1.3162   -0.8184 H   0  0  0  0  0  0  0  0  0  0  0  0
   -0.3550   -0.9034   -1.8250 H   0  0  0  0  0  0  0  0  0  0  0  0
    1.2143    0.0971   -1.6601 H   0  0  0  0  0  0  0  0  0  0  0  0
    0.8593   -1.9018    0.2373 H   0  0  0  0  0  0  0  0  0  0  0  0
   -0.9416   -0.0581    1.5389 H   0  0  0  0  0  0  0  0  0  0  0  0
   -2.6750   -0.6917    0.1220 H   0  0  0  0  0  0  0  0  0  0  0  0
  1  2  2  0
  2  3  1  0
  3  4  2  0
  3  5  1  0
  5  6  1  0
  6  7  1  0
  7  8  1  0
  8  9  1  0
  7  2  1  0
  8  5  1  0
  5 10  1  0
  6 11  1  0
  6 12  1  0
  7 13  1  0
  8 14  1  0
  9 15  1  0
M  END
