
     RDKit          3D

 17 19  0  0  0  0  0  0  0  0999 V2000
    0.3557    1.8827   -1.7112 O   0  0  0  0  0  0  0  0  0  0  0  0
   -0.1580    1.1103   -0.9380 C   0  0  0  0  0  0  0  0  0  0  0  0
   -1.1325   -0.0003   -0.8309 C   0  0  0  0  0  0  0  0  0  0  0  0
   -1.5028    0.6510    0.5143 C   0  0  0  0  0  0  0  0  0  0  0  0
    0.0134    0.9174    0.5315 C   0  0  0  0  0  0  0  0  0  0  0  0
    0.5855   -0.4385    0.5821 C   0  0  0  0  0  0  0  0  0  0  0  0
    2.0664   -0.5570    0.3172 C   0  0  0  0  0  0  0  0  0  0  0  0
    1.3947   -0.9693    1.4774 O   0  0  0  0  0  0  0  0  0  0  0  0
   -0.3551   -1.1990   -0.3239 C   0  0  0  0  0  0  0  0  0  0  0  0
   -1.8940   -0.1250   -1.5448 H   0  0  0  0  0  0  0  0  0  0  0  0
   -1.8447   -0.0645    1.2677 H   0  0  0  0  0  0  0  0  0  0  0  0
   -2.0306    1.5991    0.4230 H   0  0  0  0  0  0  0  0  0  0  0  0
    0.3614    1.7211    1.1242 H   0  0  0  0  0  0  0  0  0  0  0  0
    2.6901    0.3750    0.3910 H   0  0  0  0  0  0  0  0  0  0  0  0
    2.3698   -1.2995   -0.4269 H   0  0  0  0  0  0  0  0  0  0  0  0
   -1.0658   -1.8422    0.2535 H   0  0  0  0  0  0  0  0  0  0  0  0
    0.1464   -1.7612   -1.1061 H   0  0  0  0  0  0  0  0  0  0  0  0
  1  2  2  0
  2  3  1  0
  3  4  1  0
  4  5  1  0
  5  6  1  0
  6  7  1  0
  7  8  1  0
  6  9  1  0
  5  2  1  0
  8  6  1  0
  9  3  1  0
  3 10  1  0
  4 11  1  0
  4 12  1  0
  5 13  1  0
  7 14  1  0
  7 15  1  0
  9 16  1  0
  9 17  1  0
M  END
