
     RDKit          3D

 17 18  0  0  0  0  0  0  0  0999 V2000
    0.1106    2.0692   -0.6164 O   0  0  0  0  0  0  0  0  0  0  0  0
   -0.4832    1.0742   -0.2841 C   0  0  0  0  0  0  0  0  0  0  0  0
   -1.9458    0.8055   -0.1721 C   0  0  0  0  0  0  0  0  0  0  0  0
   -1.9506   -0.4970    0.6050 C   0  0  0  0  0  0  0  0  0  0  0  0
   -0.6680   -0.5876    1.1912 O   0  0  0  0  0  0  0  0  0  0  0  0
    0.1401   -0.2332    0.1286 C   0  0  0  0  0  0  0  0  0  0  0  0
    1.5711    0.0048    0.5080 C   0  0  0  0  0  0  0  0  0  0  0  0
    2.6629   -0.8086    0.0944 C   0  0  0  0  0  0  0  0  0  0  0  0
    2.3190    0.3758   -0.7251 O   0  0  0  0  0  0  0  0  0  0  0  0
   -2.4806    1.6147    0.3637 H   0  0  0  0  0  0  0  0  0  0  0  0
   -2.3131    0.6655   -1.2149 H   0  0  0  0  0  0  0  0  0  0  0  0
   -2.7466   -0.5463    1.3606 H   0  0  0  0  0  0  0  0  0  0  0  0
   -2.0797   -1.3268   -0.1137 H   0  0  0  0  0  0  0  0  0  0  0  0
    0.0138   -0.9855   -0.6653 H   0  0  0  0  0  0  0  0  0  0  0  0
    1.7254    0.8384    1.2232 H   0  0  0  0  0  0  0  0  0  0  0  0
    2.4864   -1.7492   -0.4805 H   0  0  0  0  0  0  0  0  0  0  0  0
    3.6381   -0.7138    0.6075 H   0  0  0  0  0  0  0  0  0  0  0  0
  1  2  2  0
  2  3  1  0
  3  4  1  0
  4  5  1  0
  5  6  1  0
  6  7  1  0
  7  8  1  0
  8  9  1  0
  6  2  1  0
  9  7  1  0
  3 10  1  0
  3 11  1  0
  4 12  1  0
  4 13  1  0
  6 14  1  0
  7 15  1  0
  8 16  1  0
  8 17  1  0
M  END
