
     RDKit          3D

 19 20  0  0  0  0  0  0  0  0999 V2000
   -1.6074   -2.3599   -0.4190 O   0  0  0  0  0  0  0  0  0  0  0  0
   -1.0285   -1.3092   -0.2011 C   0  0  0  0  0  0  0  0  0  0  0  0
   -1.4165    0.0390   -0.6988 C   0  0  0  0  0  0  0  0  0  0  0  0
   -0.7497    1.0314    0.2359 C   0  0  0  0  0  0  0  0  0  0  0  0
    0.4711    1.5387   -0.4213 C   0  0  0  0  0  0  0  0  0  0  0  0
    1.4810    0.7187   -0.6027 C   0  0  0  0  0  0  0  0  0  0  0  0
    1.3364   -0.7510   -0.3024 C   0  0  0  0  0  0  0  0  0  0  0  0
    0.2024   -1.0666    0.6035 C   0  0  0  0  0  0  0  0  0  0  0  0
   -0.2296    0.1626    1.3964 C   0  0  0  0  0  0  0  0  0  0  0  0
   -0.9838    0.1101   -1.7380 H   0  0  0  0  0  0  0  0  0  0  0  0
   -2.5070    0.1802   -0.7603 H   0  0  0  0  0  0  0  0  0  0  0  0
   -1.4231    1.8113    0.5910 H   0  0  0  0  0  0  0  0  0  0  0  0
    0.5287    2.5505   -0.7409 H   0  0  0  0  0  0  0  0  0  0  0  0
    2.4633    1.0424   -0.9731 H   0  0  0  0  0  0  0  0  0  0  0  0
    1.1547   -1.2229   -1.3134 H   0  0  0  0  0  0  0  0  0  0  0  0
    2.2740   -1.1601    0.1107 H   0  0  0  0  0  0  0  0  0  0  0  0
    0.4388   -1.9178    1.2696 H   0  0  0  0  0  0  0  0  0  0  0  0
    0.6324    0.6560    1.8735 H   0  0  0  0  0  0  0  0  0  0  0  0
   -1.0372   -0.0532    2.0903 H   0  0  0  0  0  0  0  0  0  0  0  0
  1  2  2  0
  2  3  1  0
  3  4  1  0
  4  5  1  0
  5  6  2  0
  6  7  1  0
  7  8  1  0
  8  9  1  0
  8  2  1  0
  9  4  1  0
  3 10  1  0
  3 11  1  0
  4 12  1  0
  5 13  1  0
  6 14  1  0
  7 15  1  0
  7 16  1  0
  8 17  1  0
  9 18  1  0
  9 19  1  0
M  END
