
     RDKit          3D

 13 14  0  0  0  0  0  0  0  0999 V2000
    2.5882   -0.8064   -0.2935 O   0  0  0  0  0  0  0  0  0  0  0  0
    1.3515   -0.6333   -0.2285 C   0  0  0  0  0  0  0  0  0  0  0  0
    0.2876   -1.5097   -0.4960 O   0  0  0  0  0  0  0  0  0  0  0  0
   -0.8437   -0.7082   -0.2293 C   0  0  0  0  0  0  0  0  0  0  0  0
   -0.4318   -0.0277    1.0767 C   0  0  0  0  0  0  0  0  0  0  0  0
    0.6467    0.5816    0.1606 C   0  0  0  0  0  0  0  0  0  0  0  0
   -0.4741    0.6340   -0.8714 C   0  0  0  0  0  0  0  0  0  0  0  0
   -1.8197   -1.0742   -0.3349 H   0  0  0  0  0  0  0  0  0  0  0  0
    0.0141   -0.6984    1.8249 H   0  0  0  0  0  0  0  0  0  0  0  0
   -1.1086    0.7531    1.4296 H   0  0  0  0  0  0  0  0  0  0  0  0
    1.1214    1.4616    0.4634 H   0  0  0  0  0  0  0  0  0  0  0  0
   -0.1666    0.5683   -1.9107 H   0  0  0  0  0  0  0  0  0  0  0  0
   -1.1649    1.4593   -0.5910 H   0  0  0  0  0  0  0  0  0  0  0  0
  1  2  2  0
  2  3  1  0
  3  4  1  0
  4  5  1  0
  5  6  1  0
  6  7  1  0
  6  2  1  0
  7  4  1  0
  4  8  1  0
  5  9  1  0
  5 10  1  0
  6 11  1  0
  7 12  1  0
  7 13  1  0
M  END
