
     RDKit          3D

 15 16  0  0  0  0  0  0  0  0999 V2000
    3.1009   -1.0532   -0.0844 O   0  0  0  0  0  0  0  0  0  0  0  0
    1.9586   -0.4915   -0.0074 C   0  0  0  0  0  0  0  0  0  0  0  0
    1.7292    0.9470   -0.0757 C   0  0  0  0  0  0  0  0  0  0  0  0
    0.4442    1.1751    0.0364 C   0  0  0  0  0  0  0  0  0  0  0  0
   -0.3114   -0.0453    0.1879 C   0  0  0  0  0  0  0  0  0  0  0  0
   -1.6564   -0.1499    0.7376 C   0  0  0  0  0  0  0  0  0  0  0  0
   -1.5271   -0.1212   -0.7516 C   0  0  0  0  0  0  0  0  0  0  0  0
    0.6597   -1.1295    0.1608 C   0  0  0  0  0  0  0  0  0  0  0  0
    0.5338   -2.3822    0.2523 O   0  0  0  0  0  0  0  0  0  0  0  0
    2.5006    1.7337   -0.2014 H   0  0  0  0  0  0  0  0  0  0  0  0
    0.0081    2.1853    0.0155 H   0  0  0  0  0  0  0  0  0  0  0  0
   -1.9391   -1.1192    1.1964 H   0  0  0  0  0  0  0  0  0  0  0  0
   -2.1292    0.7427    1.1811 H   0  0  0  0  0  0  0  0  0  0  0  0
   -1.5603   -1.0571   -1.3184 H   0  0  0  0  0  0  0  0  0  0  0  0
   -1.8116    0.7653   -1.3289 H   0  0  0  0  0  0  0  0  0  0  0  0
  1  2  2  0
  2  3  1  0
  3  4  2  0
  4  5  1  0
  5  6  1  0
  6  7  1  0
  5  8  1  0
  8  9  2  0
  8  2  1  0
  7  5  1  0
  3 10  1  0
  4 11  1  0
  6 12  1  0
  6 13  1  0
  7 14  1  0
  7 15  1  0
M  END
