
     RDKit          3D

 15 17  0  0  0  0  0  0  0  0999 V2000
    2.8565    0.6832   -0.2644 O   0  0  0  0  0  0  0  0  0  0  0  0
    1.6346    0.5398   -0.1503 C   0  0  0  0  0  0  0  0  0  0  0  0
    0.7881    1.5197    0.4057 O   0  0  0  0  0  0  0  0  0  0  0  0
   -0.5885    1.2746    0.3034 C   0  0  0  0  0  0  0  0  0  0  0  0
   -1.0309   -0.0810    0.6314 C   0  0  0  0  0  0  0  0  0  0  0  0
    0.0438   -1.1164    0.6003 C   0  0  0  0  0  0  0  0  0  0  0  0
    0.8844   -0.6822   -0.5815 C   0  0  0  0  0  0  0  0  0  0  0  0
   -0.0722   -0.2656   -1.4854 O   0  0  0  0  0  0  0  0  0  0  0  0
   -1.0240    0.4272   -0.7963 C   0  0  0  0  0  0  0  0  0  0  0  0
   -1.2219    2.1327    0.5626 H   0  0  0  0  0  0  0  0  0  0  0  0
   -1.9790   -0.2411    1.1502 H   0  0  0  0  0  0  0  0  0  0  0  0
    0.6078   -1.2248    1.5226 H   0  0  0  0  0  0  0  0  0  0  0  0
   -0.4343   -2.0908    0.3049 H   0  0  0  0  0  0  0  0  0  0  0  0
    1.5214   -1.4908   -0.9101 H   0  0  0  0  0  0  0  0  0  0  0  0
   -1.9859    0.6153   -1.2932 H   0  0  0  0  0  0  0  0  0  0  0  0
  1  2  2  0
  2  3  1  0
  3  4  1  0
  4  5  1  0
  5  6  1  0
  6  7  1  0
  7  8  1  0
  8  9  1  0
  7  2  1  0
  9  4  1  0
  9  5  1  0
  4 10  1  0
  5 11  1  0
  6 12  1  0
  6 13  1  0
  7 14  1  0
  9 15  1  0
M  END
