
     RDKit          3D

 17 18  0  0  0  0  0  0  0  0999 V2000
    0.5085   -0.6349    2.2923 O   0  0  0  0  0  0  0  0  0  0  0  0
    0.5796   -0.2121    1.1592 C   0  0  0  0  0  0  0  0  0  0  0  0
    1.7115   -0.2113    0.1976 C   0  0  0  0  0  0  0  0  0  0  0  0
    0.9936   -0.5072   -1.1123 C   0  0  0  0  0  0  0  0  0  0  0  0
   -0.2450    0.3091   -1.0322 C   0  0  0  0  0  0  0  0  0  0  0  0
   -1.4497   -0.3598   -1.1724 O   0  0  0  0  0  0  0  0  0  0  0  0
   -1.7426   -0.4145    0.2020 C   0  0  0  0  0  0  0  0  0  0  0  0
   -0.5473    0.4459    0.4446 C   0  0  0  0  0  0  0  0  0  0  0  0
   -0.7751    1.7624    0.7773 O   0  0  0  0  0  0  0  0  0  0  0  0
    2.4774   -0.9754    0.4366 H   0  0  0  0  0  0  0  0  0  0  0  0
    2.1425    0.8084    0.1363 H   0  0  0  0  0  0  0  0  0  0  0  0
    1.6637   -0.1361   -1.9178 H   0  0  0  0  0  0  0  0  0  0  0  0
    0.8317   -1.5889   -1.2442 H   0  0  0  0  0  0  0  0  0  0  0  0
   -0.2637    1.2522   -1.6112 H   0  0  0  0  0  0  0  0  0  0  0  0
   -1.6603   -1.4413    0.5583 H   0  0  0  0  0  0  0  0  0  0  0  0
   -2.6798    0.1218    0.4829 H   0  0  0  0  0  0  0  0  0  0  0  0
   -1.5452    1.7817    1.4030 H   0  0  0  0  0  0  0  0  0  0  0  0
  1  2  2  0
  2  3  1  0
  3  4  1  0
  4  5  1  0
  5  6  1  0
  6  7  1  0
  7  8  1  0
  8  9  1  0
  8  2  1  0
  8  5  1  0
  3 10  1  0
  3 11  1  0
  4 12  1  0
  4 13  1  0
  5 14  1  0
  7 15  1  0
  7 16  1  0
  9 17  1  0
M  END
