
     RDKit          3D

 13 13  0  0  0  0  0  0  0  0999 V2000
    1.6448    1.9825   -0.3772 O   0  0  0  0  0  0  0  0  0  0  0  0
    0.9007    0.9796   -0.3114 C   0  0  0  0  0  0  0  0  0  0  0  0
   -0.5791    1.0070   -0.3545 C   0  0  0  0  0  0  0  0  0  0  0  0
   -0.9311   -0.1615    0.5433 C   0  0  0  0  0  0  0  0  0  0  0  0
    0.0603   -1.2500    0.1080 C   0  0  0  0  0  0  0  0  0  0  0  0
    1.2582   -0.4197   -0.1811 C   0  0  0  0  0  0  0  0  0  0  0  0
    2.4248   -0.8627   -0.2982 O   0  0  0  0  0  0  0  0  0  0  0  0
   -0.9714    0.7853   -1.3696 H   0  0  0  0  0  0  0  0  0  0  0  0
   -1.0064    1.9287    0.0704 H   0  0  0  0  0  0  0  0  0  0  0  0
   -1.9674   -0.4999    0.4322 H   0  0  0  0  0  0  0  0  0  0  0  0
   -0.6837    0.1623    1.5883 H   0  0  0  0  0  0  0  0  0  0  0  0
   -0.3492   -1.7268   -0.8035 H   0  0  0  0  0  0  0  0  0  0  0  0
    0.1996   -1.9249    0.9533 H   0  0  0  0  0  0  0  0  0  0  0  0
  1  2  2  0
  2  3  1  0
  3  4  1  0
  4  5  1  0
  5  6  1  0
  6  7  2  0
  6  2  1  0
  3  8  1  0
  3  9  1  0
  4 10  1  0
  4 11  1  0
  5 12  1  0
  5 13  1  0
M  END
