
     RDKit          3D

 17 18  0  0  0  0  0  0  0  0999 V2000
   -0.2845    2.8254    0.0937 O   0  0  0  0  0  0  0  0  0  0  0  0
   -0.1686    1.6192   -0.1869 C   0  0  0  0  0  0  0  0  0  0  0  0
   -1.4129    0.8287   -0.3310 C   0  0  0  0  0  0  0  0  0  0  0  0
   -1.6226   -0.4795   -0.2616 C   0  0  0  0  0  0  0  0  0  0  0  0
   -0.5316   -1.4881   -0.0433 C   0  0  0  0  0  0  0  0  0  0  0  0
    0.3896   -0.9013    1.0351 C   0  0  0  0  0  0  0  0  0  0  0  0
    1.2468   -0.4347   -0.0908 C   0  0  0  0  0  0  0  0  0  0  0  0
    1.1930    1.0437   -0.3602 C   0  0  0  0  0  0  0  0  0  0  0  0
    0.4990   -1.1966   -0.9516 O   0  0  0  0  0  0  0  0  0  0  0  0
   -2.2855    1.4631   -0.5268 H   0  0  0  0  0  0  0  0  0  0  0  0
   -2.6318   -0.8550   -0.3666 H   0  0  0  0  0  0  0  0  0  0  0  0
   -0.8251   -2.5152    0.0751 H   0  0  0  0  0  0  0  0  0  0  0  0
    0.8695   -1.7247    1.6156 H   0  0  0  0  0  0  0  0  0  0  0  0
   -0.1162   -0.1465    1.6463 H   0  0  0  0  0  0  0  0  0  0  0  0
    2.2991   -0.7794   -0.0893 H   0  0  0  0  0  0  0  0  0  0  0  0
    1.9579    1.5756    0.2025 H   0  0  0  0  0  0  0  0  0  0  0  0
    1.4239    1.1652   -1.4602 H   0  0  0  0  0  0  0  0  0  0  0  0
  1  2  2  0
  2  3  1  0
  3  4  2  0
  4  5  1  0
  5  6  1  0
  6  7  1  0
  7  8  1  0
  7  9  1  0
  8  2  1  0
  9  5  1  0
  3 10  1  0
  4 11  1  0
  5 12  1  0
  6 13  1  0
  6 14  1  0
  7 15  1  0
  8 16  1  0
  8 17  1  0
M  END
