
     RDKit          3D

 17 19  0  0  0  0  0  0  0  0999 V2000
    0.9964   -1.3833    1.8617 O   0  0  0  0  0  0  0  0  0  0  0  0
    1.3952   -0.7460    0.8590 C   0  0  0  0  0  0  0  0  0  0  0  0
    2.6047   -0.5343    0.2153 O   0  0  0  0  0  0  0  0  0  0  0  0
    2.0789    0.4889   -0.6209 C   0  0  0  0  0  0  0  0  0  0  0  0
    0.7620    0.0964   -0.1318 C   0  0  0  0  0  0  0  0  0  0  0  0
   -0.4053    0.9317    0.0706 C   0  0  0  0  0  0  0  0  0  0  0  0
   -1.5558    0.2733    0.8380 C   0  0  0  0  0  0  0  0  0  0  0  0
   -1.5888   -0.8317   -0.1738 C   0  0  0  0  0  0  0  0  0  0  0  0
   -0.4025   -0.2511   -0.9303 C   0  0  0  0  0  0  0  0  0  0  0  0
    2.4428    1.4730   -0.2164 H   0  0  0  0  0  0  0  0  0  0  0  0
    2.3238    0.3269   -1.6881 H   0  0  0  0  0  0  0  0  0  0  0  0
   -0.5651    1.9036   -0.3941 H   0  0  0  0  0  0  0  0  0  0  0  0
   -2.4207    0.9466    0.8665 H   0  0  0  0  0  0  0  0  0  0  0  0
   -1.2516   -0.0141    1.8656 H   0  0  0  0  0  0  0  0  0  0  0  0
   -1.3604   -1.8279    0.2949 H   0  0  0  0  0  0  0  0  0  0  0  0
   -2.5413   -0.8276   -0.7268 H   0  0  0  0  0  0  0  0  0  0  0  0
   -0.5124   -0.0244   -1.9893 H   0  0  0  0  0  0  0  0  0  0  0  0
  1  2  2  0
  2  3  1  0
  3  4  1  0
  4  5  1  0
  5  6  1  0
  6  7  1  0
  7  8  1  0
  8  9  1  0
  5  2  1  0
  9  6  1  0
  9  5  1  0
  4 10  1  0
  4 11  1  0
  6 12  1  0
  7 13  1  0
  7 14  1  0
  8 15  1  0
  8 16  1  0
  9 17  1  0
M  END
