
     RDKit          3D

 19 20  0  0  0  0  0  0  0  0999 V2000
   -2.4410   -1.9179   -0.1540 O   0  0  0  0  0  0  0  0  0  0  0  0
   -1.8898   -0.8587    0.0338 C   0  0  0  0  0  0  0  0  0  0  0  0
   -2.3283    0.5569   -0.0341 C   0  0  0  0  0  0  0  0  0  0  0  0
   -0.8799    0.9667   -0.1210 C   0  0  0  0  0  0  0  0  0  0  0  0
   -0.5457   -0.3945    0.4152 C   0  0  0  0  0  0  0  0  0  0  0  0
    0.5766   -1.0607   -0.3640 C   0  0  0  0  0  0  0  0  0  0  0  0
    1.9224   -0.5663    0.0491 C   0  0  0  0  0  0  0  0  0  0  0  0
    2.3471    0.8133   -0.0427 C   0  0  0  0  0  0  0  0  0  0  0  0
    1.9589    0.2517    1.2487 O   0  0  0  0  0  0  0  0  0  0  0  0
   -2.9617    0.8282   -0.8963 H   0  0  0  0  0  0  0  0  0  0  0  0
   -2.8435    0.8422    0.9025 H   0  0  0  0  0  0  0  0  0  0  0  0
   -0.5897    1.8100    0.5371 H   0  0  0  0  0  0  0  0  0  0  0  0
   -0.5765    1.0922   -1.1695 H   0  0  0  0  0  0  0  0  0  0  0  0
   -0.4082   -0.4683    1.5035 H   0  0  0  0  0  0  0  0  0  0  0  0
    0.4816   -2.1523   -0.1571 H   0  0  0  0  0  0  0  0  0  0  0  0
    0.4148   -0.9491   -1.4559 H   0  0  0  0  0  0  0  0  0  0  0  0
    2.6977   -1.3758    0.1689 H   0  0  0  0  0  0  0  0  0  0  0  0
    1.6266    1.5720   -0.3472 H   0  0  0  0  0  0  0  0  0  0  0  0
    3.4386    1.0104   -0.1167 H   0  0  0  0  0  0  0  0  0  0  0  0
  1  2  2  0
  2  3  1  0
  3  4  1  0
  4  5  1  0
  5  6  1  0
  6  7  1  0
  7  8  1  0
  8  9  1  0
  5  2  1  0
  9  7  1  0
  3 10  1  0
  3 11  1  0
  4 12  1  0
  4 13  1  0
  5 14  1  0
  6 15  1  0
  6 16  1  0
  7 17  1  0
  8 18  1  0
  8 19  1  0
M  END
