
     RDKit          3D

 19 20  0  0  0  0  0  0  0  0999 V2000
    1.7159    2.5427   -0.2711 O   0  0  0  0  0  0  0  0  0  0  0  0
    1.3043    1.3518   -0.2034 C   0  0  0  0  0  0  0  0  0  0  0  0
    2.1758    0.1365   -0.3060 C   0  0  0  0  0  0  0  0  0  0  0  0
    1.2531   -1.0170   -0.1461 C   0  0  0  0  0  0  0  0  0  0  0  0
   -0.1233   -0.4870   -0.4161 C   0  0  0  0  0  0  0  0  0  0  0  0
   -1.1857   -0.9674    0.5448 C   0  0  0  0  0  0  0  0  0  0  0  0
   -2.2234    0.1198    0.2185 C   0  0  0  0  0  0  0  0  0  0  0  0
   -1.2859    1.3010    0.3393 C   0  0  0  0  0  0  0  0  0  0  0  0
   -0.0772    0.9553   -0.0153 C   0  0  0  0  0  0  0  0  0  0  0  0
    2.9894    0.1743    0.4661 H   0  0  0  0  0  0  0  0  0  0  0  0
    2.6483    0.1386   -1.3072 H   0  0  0  0  0  0  0  0  0  0  0  0
    1.3210   -1.5259    0.8322 H   0  0  0  0  0  0  0  0  0  0  0  0
    1.4714   -1.7591   -0.9430 H   0  0  0  0  0  0  0  0  0  0  0  0
   -0.4518   -0.6005   -1.4504 H   0  0  0  0  0  0  0  0  0  0  0  0
   -0.8340   -0.7859    1.5562 H   0  0  0  0  0  0  0  0  0  0  0  0
   -1.5549   -1.9667    0.3278 H   0  0  0  0  0  0  0  0  0  0  0  0
   -2.5190   -0.0491   -0.8350 H   0  0  0  0  0  0  0  0  0  0  0  0
   -3.0339    0.1555    0.9358 H   0  0  0  0  0  0  0  0  0  0  0  0
   -1.5900    2.2829    0.6729 H   0  0  0  0  0  0  0  0  0  0  0  0
  1  2  2  0
  2  3  1  0
  3  4  1  0
  4  5  1  0
  5  6  1  0
  6  7  1  0
  7  8  1  0
  8  9  2  0
  9  2  1  0
  9  5  1  0
  3 10  1  0
  3 11  1  0
  4 12  1  0
  4 13  1  0
  5 14  1  0
  6 15  1  0
  6 16  1  0
  7 17  1  0
  7 18  1  0
  8 19  1  0
M  END
