
     RDKit          3D

 19 20  0  0  0  0  0  0  0  0999 V2000
   -0.6586   -0.4180    2.6142 O   0  0  0  0  0  0  0  0  0  0  0  0
   -0.4337   -0.2746    1.4255 C   0  0  0  0  0  0  0  0  0  0  0  0
   -1.2183    0.6739    0.5510 C   0  0  0  0  0  0  0  0  0  0  0  0
   -0.5565    0.5169   -0.7860 C   0  0  0  0  0  0  0  0  0  0  0  0
    0.8408    1.1006   -0.6588 C   0  0  0  0  0  0  0  0  0  0  0  0
    1.6350    0.0967    0.1844 C   0  0  0  0  0  0  0  0  0  0  0  0
    0.5741   -0.9193    0.5608 C   0  0  0  0  0  0  0  0  0  0  0  0
   -0.2068   -0.9750   -0.7628 C   0  0  0  0  0  0  0  0  0  0  0  0
   -1.3045   -1.7775   -0.6921 O   0  0  0  0  0  0  0  0  0  0  0  0
   -1.0703    1.7020    0.8893 H   0  0  0  0  0  0  0  0  0  0  0  0
   -2.2910    0.4449    0.5556 H   0  0  0  0  0  0  0  0  0  0  0  0
   -1.1084    0.8287   -1.6429 H   0  0  0  0  0  0  0  0  0  0  0  0
    0.7750    2.0819   -0.1480 H   0  0  0  0  0  0  0  0  0  0  0  0
    1.2535    1.1872   -1.6664 H   0  0  0  0  0  0  0  0  0  0  0  0
    2.3813   -0.3884   -0.4762 H   0  0  0  0  0  0  0  0  0  0  0  0
    2.0833    0.5883    1.0677 H   0  0  0  0  0  0  0  0  0  0  0  0
    0.9439   -1.8714    0.8823 H   0  0  0  0  0  0  0  0  0  0  0  0
    0.4712   -1.2070   -1.5800 H   0  0  0  0  0  0  0  0  0  0  0  0
   -2.1104   -1.3898   -0.3177 H   0  0  0  0  0  0  0  0  0  0  0  0
  1  2  2  0
  2  3  1  0
  3  4  1  0
  4  5  1  0
  5  6  1  0
  6  7  1  0
  7  8  1  0
  8  9  1  0
  7  2  1  0
  8  4  1  0
  3 10  1  0
  3 11  1  0
  4 12  1  0
  5 13  1  0
  5 14  1  0
  6 15  1  0
  6 16  1  0
  7 17  1  0
  8 18  1  0
  9 19  1  0
M  END
