
     RDKit          3D

 19 20  0  0  0  0  0  0  0  0999 V2000
    3.0993   -0.9776    0.6194 O   0  0  0  0  0  0  0  0  0  0  0  0
    2.0513   -0.4536    0.2978 C   0  0  0  0  0  0  0  0  0  0  0  0
    1.5515    0.9329    0.0867 C   0  0  0  0  0  0  0  0  0  0  0  0
    0.4631    0.3412   -0.7900 C   0  0  0  0  0  0  0  0  0  0  0  0
   -0.9395    0.7756   -0.4367 C   0  0  0  0  0  0  0  0  0  0  0  0
   -1.6504    1.0946   -1.5869 O   0  0  0  0  0  0  0  0  0  0  0  0
   -1.5426   -0.4437    0.2658 C   0  0  0  0  0  0  0  0  0  0  0  0
   -0.3112   -0.9286    1.0309 C   0  0  0  0  0  0  0  0  0  0  0  0
    0.7212   -0.9513   -0.0511 C   0  0  0  0  0  0  0  0  0  0  0  0
    1.1225    1.3931    1.0027 H   0  0  0  0  0  0  0  0  0  0  0  0
    2.2399    1.6028   -0.4679 H   0  0  0  0  0  0  0  0  0  0  0  0
    0.6831    0.3366   -1.8636 H   0  0  0  0  0  0  0  0  0  0  0  0
   -0.8666    1.5942    0.2774 H   0  0  0  0  0  0  0  0  0  0  0  0
   -2.6199    0.9748   -1.4975 H   0  0  0  0  0  0  0  0  0  0  0  0
   -2.3633   -0.1795    0.9307 H   0  0  0  0  0  0  0  0  0  0  0  0
   -1.7827   -1.2428   -0.4602 H   0  0  0  0  0  0  0  0  0  0  0  0
   -0.0602   -0.1371    1.7791 H   0  0  0  0  0  0  0  0  0  0  0  0
   -0.4720   -1.8696    1.5461 H   0  0  0  0  0  0  0  0  0  0  0  0
    0.6762   -1.8619   -0.6827 H   0  0  0  0  0  0  0  0  0  0  0  0
  1  2  2  0
  2  3  1  0
  3  4  1  0
  4  5  1  0
  5  6  1  0
  5  7  1  0
  7  8  1  0
  8  9  1  0
  9  2  1  0
  9  4  1  0
  3 10  1  0
  3 11  1  0
  4 12  1  0
  5 13  1  0
  6 14  1  0
  7 15  1  0
  7 16  1  0
  8 17  1  0
  8 18  1  0
  9 19  1  0
M  END
