
     RDKit          3D

 17 18  0  0  0  0  0  0  0  0999 V2000
   -0.5451    1.6680    2.0527 O   0  0  0  0  0  0  0  0  0  0  0  0
   -0.0021    1.0895    1.0806 C   0  0  0  0  0  0  0  0  0  0  0  0
    1.3007    1.4409    0.5018 C   0  0  0  0  0  0  0  0  0  0  0  0
    1.7903    0.4043   -0.1564 C   0  0  0  0  0  0  0  0  0  0  0  0
    0.8382   -0.7311   -0.0643 C   0  0  0  0  0  0  0  0  0  0  0  0
    0.8042   -1.4680   -1.2474 O   0  0  0  0  0  0  0  0  0  0  0  0
   -0.4432   -0.0503    0.2473 C   0  0  0  0  0  0  0  0  0  0  0  0
   -1.4005    0.2665   -0.8352 C   0  0  0  0  0  0  0  0  0  0  0  0
   -1.7398   -0.6737    0.3444 C   0  0  0  0  0  0  0  0  0  0  0  0
    1.8258    2.4067    0.5796 H   0  0  0  0  0  0  0  0  0  0  0  0
    2.7512    0.3738   -0.6928 H   0  0  0  0  0  0  0  0  0  0  0  0
    1.2030   -1.3576    0.8025 H   0  0  0  0  0  0  0  0  0  0  0  0
    1.1425   -2.3737   -1.0309 H   0  0  0  0  0  0  0  0  0  0  0  0
   -1.2742   -0.1823   -1.8267 H   0  0  0  0  0  0  0  0  0  0  0  0
   -1.8869    1.2516   -0.8105 H   0  0  0  0  0  0  0  0  0  0  0  0
   -2.5225   -0.3320    1.0196 H   0  0  0  0  0  0  0  0  0  0  0  0
   -1.8414   -1.7326    0.0357 H   0  0  0  0  0  0  0  0  0  0  0  0
  1  2  2  0
  2  3  1  0
  3  4  2  0
  4  5  1  0
  5  6  1  0
  5  7  1  0
  7  8  1  0
  8  9  1  0
  7  2  1  0
  9  7  1  0
  3 10  1  0
  4 11  1  0
  5 12  1  0
  6 13  1  0
  8 14  1  0
  8 15  1  0
  9 16  1  0
  9 17  1  0
M  END
