
     RDKit          3D

 19 21  0  0  0  0  0  0  0  0999 V2000
   -0.2773    1.3696   -1.7009 O   0  0  0  0  0  0  0  0  0  0  0  0
    0.4258    0.7292   -0.9441 C   0  0  0  0  0  0  0  0  0  0  0  0
    1.7412    0.1002   -1.0619 C   0  0  0  0  0  0  0  0  0  0  0  0
    2.6963    0.0068    0.0537 C   0  0  0  0  0  0  0  0  0  0  0  0
    1.3962   -0.6635    0.2563 C   0  0  0  0  0  0  0  0  0  0  0  0
    0.2408    0.3030    0.4599 C   0  0  0  0  0  0  0  0  0  0  0  0
   -1.0707   -0.3121    0.7992 C   0  0  0  0  0  0  0  0  0  0  0  0
   -2.2725    0.6091    0.5514 C   0  0  0  0  0  0  0  0  0  0  0  0
   -2.0865   -0.6716   -0.1970 C   0  0  0  0  0  0  0  0  0  0  0  0
    1.9232   -0.5052   -1.9504 H   0  0  0  0  0  0  0  0  0  0  0  0
    2.8637    0.8898    0.7383 H   0  0  0  0  0  0  0  0  0  0  0  0
    3.6257   -0.5396   -0.1375 H   0  0  0  0  0  0  0  0  0  0  0  0
    1.2170   -1.7204    0.1021 H   0  0  0  0  0  0  0  0  0  0  0  0
    0.5357    1.1246    1.1498 H   0  0  0  0  0  0  0  0  0  0  0  0
   -1.1087   -0.8070    1.7896 H   0  0  0  0  0  0  0  0  0  0  0  0
   -2.1115    1.5204   -0.0583 H   0  0  0  0  0  0  0  0  0  0  0  0
   -3.0317    0.7097    1.3331 H   0  0  0  0  0  0  0  0  0  0  0  0
   -2.7982   -1.4925    0.0969 H   0  0  0  0  0  0  0  0  0  0  0  0
   -1.9085   -0.6505   -1.2802 H   0  0  0  0  0  0  0  0  0  0  0  0
  1  2  2  0
  2  3  1  0
  3  4  1  0
  4  5  1  0
  5  6  1  0
  6  7  1  0
  7  8  1  0
  8  9  1  0
  6  2  1  0
  9  7  1  0
  5  3  1  0
  3 10  1  0
  4 11  1  0
  4 12  1  0
  5 13  1  0
  6 14  1  0
  7 15  1  0
  8 16  1  0
  8 17  1  0
  9 18  1  0
  9 19  1  0
M  END
