
     RDKit          3D

 15 17  0  0  0  0  0  0  0  0999 V2000
    1.2061    2.2099   -0.7875 O   0  0  0  0  0  0  0  0  0  0  0  0
    0.7648    1.2293   -0.2219 C   0  0  0  0  0  0  0  0  0  0  0  0
    1.4736   -0.0789   -0.1745 C   0  0  0  0  0  0  0  0  0  0  0  0
    0.3930   -0.9293    0.5040 C   0  0  0  0  0  0  0  0  0  0  0  0
   -0.1013    0.0034    1.4362 O   0  0  0  0  0  0  0  0  0  0  0  0
   -0.4926    1.0197    0.5328 C   0  0  0  0  0  0  0  0  0  0  0  0
   -1.4637    0.2635   -0.3321 C   0  0  0  0  0  0  0  0  0  0  0  0
   -0.9655   -0.2928   -1.4973 O   0  0  0  0  0  0  0  0  0  0  0  0
   -0.7875   -1.1135   -0.3969 C   0  0  0  0  0  0  0  0  0  0  0  0
    2.3424   -0.0601    0.5114 H   0  0  0  0  0  0  0  0  0  0  0  0
    1.6701   -0.5087   -1.1548 H   0  0  0  0  0  0  0  0  0  0  0  0
    0.7849   -1.8294    0.9575 H   0  0  0  0  0  0  0  0  0  0  0  0
   -0.8904    1.8960    1.0209 H   0  0  0  0  0  0  0  0  0  0  0  0
   -2.5194    0.2021   -0.0705 H   0  0  0  0  0  0  0  0  0  0  0  0
   -1.4144   -2.0111   -0.3272 H   0  0  0  0  0  0  0  0  0  0  0  0
  1  2  2  0
  2  3  1  0
  3  4  1  0
  4  5  1  0
  5  6  1  0
  6  7  1  0
  7  8  1  0
  8  9  1  0
  6  2  1  0
  9  7  1  0
  9  4  1  0
  3 10  1  0
  3 11  1  0
  4 12  1  0
  6 13  1  0
  7 14  1  0
  9 15  1  0
M  END
