
     RDKit          3D

 17 18  0  0  0  0  0  0  0  0999 V2000
    0.5511    2.3825    0.8754 O   0  0  0  0  0  0  0  0  0  0  0  0
    0.3715    1.3310    0.3244 C   0  0  0  0  0  0  0  0  0  0  0  0
   -0.9908    0.8262    0.1291 C   0  0  0  0  0  0  0  0  0  0  0  0
   -1.0869   -0.7059    0.2051 C   0  0  0  0  0  0  0  0  0  0  0  0
   -1.3575   -1.2024   -1.0923 O   0  0  0  0  0  0  0  0  0  0  0  0
    0.2437   -1.1622    0.6337 C   0  0  0  0  0  0  0  0  0  0  0  0
    1.1546   -1.9083    0.0498 O   0  0  0  0  0  0  0  0  0  0  0  0
    1.1408   -0.7295   -0.5518 C   0  0  0  0  0  0  0  0  0  0  0  0
    1.6139    0.5988   -0.1336 C   0  0  0  0  0  0  0  0  0  0  0  0
   -1.6046    1.1985    0.9767 H   0  0  0  0  0  0  0  0  0  0  0  0
   -1.4357    1.1510   -0.8426 H   0  0  0  0  0  0  0  0  0  0  0  0
   -1.9326   -1.0258    0.8471 H   0  0  0  0  0  0  0  0  0  0  0  0
   -2.2986   -1.0037   -1.2729 H   0  0  0  0  0  0  0  0  0  0  0  0
    0.5217   -0.7848    1.6541 H   0  0  0  0  0  0  0  0  0  0  0  0
    0.6871   -0.7365   -1.5733 H   0  0  0  0  0  0  0  0  0  0  0  0
    2.3090    0.6127    0.7254 H   0  0  0  0  0  0  0  0  0  0  0  0
    2.1135    1.1583   -0.9542 H   0  0  0  0  0  0  0  0  0  0  0  0
  1  2  2  0
  2  3  1  0
  3  4  1  0
  4  5  1  0
  4  6  1  0
  6  7  1  0
  7  8  1  0
  8  9  1  0
  9  2  1  0
  8  6  1  0
  3 10  1  0
  3 11  1  0
  4 12  1  0
  5 13  1  0
  6 14  1  0
  8 15  1  0
  9 16  1  0
  9 17  1  0
M  END
