
     RDKit          3D

 17 17  0  0  0  0  0  0  0  0999 V2000
   -1.6373    2.3533   -0.1133 O   0  0  0  0  0  0  0  0  0  0  0  0
   -1.2998    1.1510   -0.0144 C   0  0  0  0  0  0  0  0  0  0  0  0
   -0.2264    0.6735    0.9078 C   0  0  0  0  0  0  0  0  0  0  0  0
    0.4963   -0.4763    0.2894 C   0  0  0  0  0  0  0  0  0  0  0  0
    1.4903   -0.0174   -0.7808 C   0  0  0  0  0  0  0  0  0  0  0  0
    2.3179    0.9973   -0.2850 O   0  0  0  0  0  0  0  0  0  0  0  0
   -0.2918   -1.4615   -0.2240 O   0  0  0  0  0  0  0  0  0  0  0  0
   -1.6158   -1.1854   -0.3524 C   0  0  0  0  0  0  0  0  0  0  0  0
   -1.9086    0.1316   -0.7718 O   0  0  0  0  0  0  0  0  0  0  0  0
   -0.6669    0.3282    1.8742 H   0  0  0  0  0  0  0  0  0  0  0  0
    0.4850    1.5144    1.0505 H   0  0  0  0  0  0  0  0  0  0  0  0
    1.1376   -0.9384    1.0922 H   0  0  0  0  0  0  0  0  0  0  0  0
    0.9714    0.3503   -1.6777 H   0  0  0  0  0  0  0  0  0  0  0  0
    2.1598   -0.8838   -0.9773 H   0  0  0  0  0  0  0  0  0  0  0  0
    2.8091    0.6863    0.5132 H   0  0  0  0  0  0  0  0  0  0  0  0
   -2.0706   -1.8639   -1.1264 H   0  0  0  0  0  0  0  0  0  0  0  0
   -2.1503   -1.3593    0.5957 H   0  0  0  0  0  0  0  0  0  0  0  0
  1  2  2  0
  2  3  1  0
  3  4  1  0
  4  5  1  0
  5  6  1  0
  4  7  1  0
  7  8  1  0
  8  9  1  0
  9  2  1  0
  3 10  1  0
  3 11  1  0
  4 12  1  0
  5 13  1  0
  5 14  1  0
  6 15  1  0
  8 16  1  0
  8 17  1  0
M  END
