
     RDKit          3D

 16 17  0  0  0  0  0  0  0  0999 V2000
    3.0583    0.2691    0.9988 O   0  0  0  0  0  0  0  0  0  0  0  0
    1.9917    0.0823    0.4419 C   0  0  0  0  0  0  0  0  0  0  0  0
    0.9539   -0.9797    0.5743 C   0  0  0  0  0  0  0  0  0  0  0  0
   -0.0334    0.0392    0.1194 C   0  0  0  0  0  0  0  0  0  0  0  0
   -1.2117   -0.3822   -0.6331 C   0  0  0  0  0  0  0  0  0  0  0  0
   -1.8763    0.6013    0.3242 C   0  0  0  0  0  0  0  0  0  0  0  0
   -0.7017    0.7674    1.0455 O   0  0  0  0  0  0  0  0  0  0  0  0
    1.1100    0.6869   -0.5998 C   0  0  0  0  0  0  0  0  0  0  0  0
    0.8352   -1.4236    1.5547 H   0  0  0  0  0  0  0  0  0  0  0  0
    1.1241   -1.7360   -0.2379 H   0  0  0  0  0  0  0  0  0  0  0  0
   -1.2445   -0.1093   -1.6873 H   0  0  0  0  0  0  0  0  0  0  0  0
   -1.4996   -1.4380   -0.3904 H   0  0  0  0  0  0  0  0  0  0  0  0
   -2.2198    1.4713   -0.2542 H   0  0  0  0  0  0  0  0  0  0  0  0
   -2.6613    0.1613    0.9655 H   0  0  0  0  0  0  0  0  0  0  0  0
    1.3050    0.2102   -1.6016 H   0  0  0  0  0  0  0  0  0  0  0  0
    1.0701    1.7802   -0.6200 H   0  0  0  0  0  0  0  0  0  0  0  0
  1  2  2  0
  2  3  1  0
  3  4  1  0
  4  5  1  0
  5  6  1  0
  6  7  1  0
  4  8  1  0
  8  2  1  0
  7  4  1  0
  3  9  1  0
  3 10  1  0
  5 11  1  0
  5 12  1  0
  6 13  1  0
  6 14  1  0
  8 15  1  0
  8 16  1  0
M  END
