
     RDKit          3D

 19 20  0  0  0  0  0  0  0  0999 V2000
    0.9154    1.4659   -2.1136 O   0  0  0  0  0  0  0  0  0  0  0  0
    0.9123    0.6547   -1.2305 C   0  0  0  0  0  0  0  0  0  0  0  0
    1.4890    0.5932    0.1418 C   0  0  0  0  0  0  0  0  0  0  0  0
    0.2524    0.5845    0.9952 C   0  0  0  0  0  0  0  0  0  0  0  0
   -0.5200   -0.5295    0.2596 C   0  0  0  0  0  0  0  0  0  0  0  0
   -1.9055   -0.0885   -0.0930 C   0  0  0  0  0  0  0  0  0  0  0  0
   -2.6063    0.2404    1.0650 O   0  0  0  0  0  0  0  0  0  0  0  0
    0.3946   -0.7194   -0.8940 C   0  0  0  0  0  0  0  0  0  0  0  0
    1.7460   -0.8852   -0.1792 C   0  0  0  0  0  0  0  0  0  0  0  0
    2.3170    1.1994    0.3902 H   0  0  0  0  0  0  0  0  0  0  0  0
   -0.2866    1.5357    0.8472 H   0  0  0  0  0  0  0  0  0  0  0  0
    0.4325    0.3234    2.0446 H   0  0  0  0  0  0  0  0  0  0  0  0
   -0.4917   -1.3992    0.9223 H   0  0  0  0  0  0  0  0  0  0  0  0
   -2.4267   -0.9824   -0.5174 H   0  0  0  0  0  0  0  0  0  0  0  0
   -1.9537    0.7039   -0.8335 H   0  0  0  0  0  0  0  0  0  0  0  0
   -2.6807    1.2450    1.0671 H   0  0  0  0  0  0  0  0  0  0  0  0
    0.1757   -1.3800   -1.6879 H   0  0  0  0  0  0  0  0  0  0  0  0
    2.5985   -0.9976   -0.8481 H   0  0  0  0  0  0  0  0  0  0  0  0
    1.6378   -1.5642    0.6642 H   0  0  0  0  0  0  0  0  0  0  0  0
  1  2  2  0
  2  3  1  0
  3  4  1  0
  4  5  1  0
  5  6  1  0
  6  7  1  0
  5  8  1  0
  8  9  1  0
  8  2  1  0
  9  3  1  0
  3 10  1  0
  4 11  1  0
  4 12  1  0
  5 13  1  0
  6 14  1  0
  6 15  1  0
  7 16  1  0
  8 17  1  0
  9 18  1  0
  9 19  1  0
M  END
