
     RDKit          3D

 15 16  0  0  0  0  0  0  0  0999 V2000
    2.2963    0.6602    1.1088 O   0  0  0  0  0  0  0  0  0  0  0  0
    1.5135    0.0701    0.3507 C   0  0  0  0  0  0  0  0  0  0  0  0
    1.2417   -1.2832    0.3951 O   0  0  0  0  0  0  0  0  0  0  0  0
   -0.0518   -1.3693   -0.2314 C   0  0  0  0  0  0  0  0  0  0  0  0
   -1.0150   -0.7147    0.7211 C   0  0  0  0  0  0  0  0  0  0  0  0
   -1.4960    0.4953    0.2657 O   0  0  0  0  0  0  0  0  0  0  0  0
   -0.5480    1.3210   -0.2813 C   0  0  0  0  0  0  0  0  0  0  0  0
    0.6948    0.5936   -0.7481 C   0  0  0  0  0  0  0  0  0  0  0  0
    0.1911   -0.5863   -1.3615 O   0  0  0  0  0  0  0  0  0  0  0  0
   -0.3104   -2.4113   -0.4749 H   0  0  0  0  0  0  0  0  0  0  0  0
   -1.8708   -1.3992    0.8904 H   0  0  0  0  0  0  0  0  0  0  0  0
   -0.5722   -0.5317    1.7301 H   0  0  0  0  0  0  0  0  0  0  0  0
   -1.0066    1.7371   -1.2287 H   0  0  0  0  0  0  0  0  0  0  0  0
   -0.3170    2.2102    0.3354 H   0  0  0  0  0  0  0  0  0  0  0  0
    1.2505    1.2082   -1.4713 H   0  0  0  0  0  0  0  0  0  0  0  0
  1  2  2  0
  2  3  1  0
  3  4  1  0
  4  5  1  0
  5  6  1  0
  6  7  1  0
  7  8  1  0
  8  9  1  0
  8  2  1  0
  9  4  1  0
  4 10  1  0
  5 11  1  0
  5 12  1  0
  7 13  1  0
  7 14  1  0
  8 15  1  0
M  END
