
     RDKit          3D

 17 18  0  0  0  0  0  0  0  0999 V2000
    2.6893   -1.7058    0.0767 O   0  0  0  0  0  0  0  0  0  0  0  0
    1.7907   -0.8322    0.2394 C   0  0  0  0  0  0  0  0  0  0  0  0
    1.7267    0.5269   -0.3706 C   0  0  0  0  0  0  0  0  0  0  0  0
    0.2617    0.7416   -0.5328 C   0  0  0  0  0  0  0  0  0  0  0  0
   -0.4191    1.3373    0.7195 C   0  0  0  0  0  0  0  0  0  0  0  0
   -0.3804   -0.1151    0.5212 C   0  0  0  0  0  0  0  0  0  0  0  0
   -1.6616   -0.8383    0.1858 C   0  0  0  0  0  0  0  0  0  0  0  0
   -1.4605   -1.8172   -0.7787 O   0  0  0  0  0  0  0  0  0  0  0  0
    0.6444   -0.9209    1.0237 O   0  0  0  0  0  0  0  0  0  0  0  0
    2.1678    1.2408    0.3759 H   0  0  0  0  0  0  0  0  0  0  0  0
    2.3117    0.6127   -1.2877 H   0  0  0  0  0  0  0  0  0  0  0  0
   -0.2137    0.8998   -1.4945 H   0  0  0  0  0  0  0  0  0  0  0  0
   -1.3797    1.8445    0.5000 H   0  0  0  0  0  0  0  0  0  0  0  0
    0.2438    1.8605    1.4476 H   0  0  0  0  0  0  0  0  0  0  0  0
   -2.4000   -0.0704   -0.1272 H   0  0  0  0  0  0  0  0  0  0  0  0
   -2.0546   -1.2974    1.1289 H   0  0  0  0  0  0  0  0  0  0  0  0
   -1.8664   -1.4668   -1.6273 H   0  0  0  0  0  0  0  0  0  0  0  0
  1  2  2  0
  2  3  1  0
  3  4  1  0
  4  5  1  0
  5  6  1  0
  6  7  1  0
  7  8  1  0
  6  9  1  0
  9  2  1  0
  6  4  1  0
  3 10  1  0
  3 11  1  0
  4 12  1  0
  5 13  1  0
  5 14  1  0
  7 15  1  0
  7 16  1  0
  8 17  1  0
M  END
