
     RDKit          3D

 16 16  0  0  0  0  0  0  0  0999 V2000
   -1.5091   -1.7452    0.8925 O   0  0  0  0  0  0  0  0  0  0  0  0
   -0.8370   -1.0705    0.1323 C   0  0  0  0  0  0  0  0  0  0  0  0
    0.5486   -1.5625   -0.0772 C   0  0  0  0  0  0  0  0  0  0  0  0
    1.5185   -0.4508   -0.2709 C   0  0  0  0  0  0  0  0  0  0  0  0
    1.4337    0.8442   -0.0630 C   0  0  0  0  0  0  0  0  0  0  0  0
    0.2762    1.5551    0.4474 C   0  0  0  0  0  0  0  0  0  0  0  0
   -1.0310    1.2903    0.3357 C   0  0  0  0  0  0  0  0  0  0  0  0
   -1.5835    0.0992   -0.4071 C   0  0  0  0  0  0  0  0  0  0  0  0
    0.9162   -2.1233    0.8260 H   0  0  0  0  0  0  0  0  0  0  0  0
    0.6242   -2.2528   -0.9479 H   0  0  0  0  0  0  0  0  0  0  0  0
    2.4935   -0.7704   -0.6632 H   0  0  0  0  0  0  0  0  0  0  0  0
    2.3146    1.4653   -0.2914 H   0  0  0  0  0  0  0  0  0  0  0  0
    0.5229    2.4636    1.0216 H   0  0  0  0  0  0  0  0  0  0  0  0
   -1.7180    1.9647    0.8014 H   0  0  0  0  0  0  0  0  0  0  0  0
   -2.6551   -0.0028   -0.2580 H   0  0  0  0  0  0  0  0  0  0  0  0
   -1.3148    0.2958   -1.4783 H   0  0  0  0  0  0  0  0  0  0  0  0
  1  2  2  0
  2  3  1  0
  3  4  1  0
  4  5  2  0
  5  6  1  0
  6  7  2  0
  7  8  1  0
  8  2  1  0
  3  9  1  0
  3 10  1  0
  4 11  1  0
  5 12  1  0
  6 13  1  0
  7 14  1  0
  8 15  1  0
  8 16  1  0
M  END
