
     RDKit          3D

 15 16  0  0  0  0  0  0  0  0999 V2000
    0.8798   -1.4732    1.7976 O   0  0  0  0  0  0  0  0  0  0  0  0
    0.4687   -0.9963    0.7823 C   0  0  0  0  0  0  0  0  0  0  0  0
   -0.8112   -1.2837    0.0707 C   0  0  0  0  0  0  0  0  0  0  0  0
   -1.7934   -0.3855    0.4836 O   0  0  0  0  0  0  0  0  0  0  0  0
   -1.2373    0.8515    0.0945 C   0  0  0  0  0  0  0  0  0  0  0  0
   -0.1330    0.4881   -0.8453 C   0  0  0  0  0  0  0  0  0  0  0  0
   -0.5755   -0.7992   -1.2426 O   0  0  0  0  0  0  0  0  0  0  0  0
    1.1248    0.0431   -0.0861 C   0  0  0  0  0  0  0  0  0  0  0  0
    1.7059    1.0475    0.6168 O   0  0  0  0  0  0  0  0  0  0  0  0
   -1.1053   -2.3187    0.0842 H   0  0  0  0  0  0  0  0  0  0  0  0
   -1.9754    1.4808   -0.4400 H   0  0  0  0  0  0  0  0  0  0  0  0
   -0.8844    1.3222    1.0328 H   0  0  0  0  0  0  0  0  0  0  0  0
    0.0590    1.1537   -1.6577 H   0  0  0  0  0  0  0  0  0  0  0  0
    1.7686   -0.4981   -0.7886 H   0  0  0  0  0  0  0  0  0  0  0  0
    2.5086    1.3676    0.0978 H   0  0  0  0  0  0  0  0  0  0  0  0
  1  2  2  0
  2  3  1  0
  3  4  1  0
  4  5  1  0
  5  6  1  0
  6  7  1  0
  6  8  1  0
  8  9  1  0
  8  2  1  0
  7  3  1  0
  3 10  1  0
  5 11  1  0
  5 12  1  0
  6 13  1  0
  8 14  1  0
  9 15  1  0
M  END
