
     RDKit          3D

 19 20  0  0  0  0  0  0  0  0999 V2000
   -1.9886    0.2943   -1.8744 O   0  0  0  0  0  0  0  0  0  0  0  0
   -1.2077    0.0042   -1.0249 C   0  0  0  0  0  0  0  0  0  0  0  0
   -1.6507   -0.6384    0.2189 C   0  0  0  0  0  0  0  0  0  0  0  0
   -0.7497   -0.1181    1.3216 C   0  0  0  0  0  0  0  0  0  0  0  0
    0.6237    0.1925    0.8299 C   0  0  0  0  0  0  0  0  0  0  0  0
    0.5543    1.3653   -0.1612 C   0  0  0  0  0  0  0  0  0  0  0  0
    0.2224    0.2843   -1.2040 C   0  0  0  0  0  0  0  0  0  0  0  0
    1.0749   -0.6388   -0.3505 C   0  0  0  0  0  0  0  0  0  0  0  0
    2.4091   -0.4284   -0.6283 O   0  0  0  0  0  0  0  0  0  0  0  0
   -2.6993   -0.3845    0.4911 H   0  0  0  0  0  0  0  0  0  0  0  0
   -1.6227   -1.7505    0.1722 H   0  0  0  0  0  0  0  0  0  0  0  0
   -0.7584   -0.7908    2.1956 H   0  0  0  0  0  0  0  0  0  0  0  0
   -1.2089    0.8674    1.6320 H   0  0  0  0  0  0  0  0  0  0  0  0
    1.3849    0.3292    1.6183 H   0  0  0  0  0  0  0  0  0  0  0  0
    1.5624    1.7422   -0.3499 H   0  0  0  0  0  0  0  0  0  0  0  0
   -0.2474    2.0773    0.0269 H   0  0  0  0  0  0  0  0  0  0  0  0
    0.5900    0.4838   -2.2055 H   0  0  0  0  0  0  0  0  0  0  0  0
    0.7569   -1.6885   -0.3484 H   0  0  0  0  0  0  0  0  0  0  0  0
    2.9548   -1.2025   -0.3594 H   0  0  0  0  0  0  0  0  0  0  0  0
  1  2  2  0
  2  3  1  0
  3  4  1  0
  4  5  1  0
  5  6  1  0
  6  7  1  0
  7  8  1  0
  8  9  1  0
  7  2  1  0
  8  5  1  0
  3 10  1  0
  3 11  1  0
  4 12  1  0
  4 13  1  0
  5 14  1  0
  6 15  1  0
  6 16  1  0
  7 17  1  0
  8 18  1  0
  9 19  1  0
M  END
