
     RDKit          3D

 17 19  0  0  0  0  0  0  0  0999 V2000
    2.9025   -0.6004   -0.0427 O   0  0  0  0  0  0  0  0  0  0  0  0
    1.7647   -0.2605   -0.0286 C   0  0  0  0  0  0  0  0  0  0  0  0
    1.2202    1.0585    0.3643 C   0  0  0  0  0  0  0  0  0  0  0  0
   -0.2781    0.8525    0.4475 C   0  0  0  0  0  0  0  0  0  0  0  0
   -0.8760    0.4690   -0.8945 C   0  0  0  0  0  0  0  0  0  0  0  0
   -1.6850   -0.5661   -0.0889 C   0  0  0  0  0  0  0  0  0  0  0  0
   -0.3730   -0.6548    0.6782 C   0  0  0  0  0  0  0  0  0  0  0  0
    0.5814   -1.0609   -0.3993 C   0  0  0  0  0  0  0  0  0  0  0  0
    0.0218   -0.3614   -1.5027 O   0  0  0  0  0  0  0  0  0  0  0  0
    1.6110    1.4215    1.3226 H   0  0  0  0  0  0  0  0  0  0  0  0
    1.3875    1.8243   -0.4226 H   0  0  0  0  0  0  0  0  0  0  0  0
   -0.8507    1.4862    1.0869 H   0  0  0  0  0  0  0  0  0  0  0  0
   -1.4294    1.1948   -1.4282 H   0  0  0  0  0  0  0  0  0  0  0  0
   -1.8488   -1.5129   -0.6270 H   0  0  0  0  0  0  0  0  0  0  0  0
   -2.5287   -0.1502    0.4532 H   0  0  0  0  0  0  0  0  0  0  0  0
   -0.3458   -1.0391    1.6476 H   0  0  0  0  0  0  0  0  0  0  0  0
    0.7263   -2.1006   -0.5659 H   0  0  0  0  0  0  0  0  0  0  0  0
  1  2  2  0
  2  3  1  0
  3  4  1  0
  4  5  1  0
  5  6  1  0
  6  7  1  0
  7  8  1  0
  8  9  1  0
  8  2  1  0
  7  4  1  0
  9  5  1  0
  3 10  1  0
  3 11  1  0
  4 12  1  0
  5 13  1  0
  6 14  1  0
  6 15  1  0
  7 16  1  0
  8 17  1  0
M  END
