
     RDKit          3D

 17 18  0  0  0  0  0  0  0  0999 V2000
   -1.8171    1.0119    1.8359 O   0  0  0  0  0  0  0  0  0  0  0  0
   -1.1589    0.7868    0.8698 C   0  0  0  0  0  0  0  0  0  0  0  0
   -1.5654    0.0186   -0.3134 C   0  0  0  0  0  0  0  0  0  0  0  0
   -0.3331   -0.8707   -0.4784 C   0  0  0  0  0  0  0  0  0  0  0  0
   -0.4935   -1.8446    0.5301 O   0  0  0  0  0  0  0  0  0  0  0  0
    0.7700    0.0735   -0.2174 C   0  0  0  0  0  0  0  0  0  0  0  0
    2.1566   -0.1339   -0.2696 C   0  0  0  0  0  0  0  0  0  0  0  0
    1.5122    0.4360   -1.3790 O   0  0  0  0  0  0  0  0  0  0  0  0
    0.2203    1.2203    0.6213 C   0  0  0  0  0  0  0  0  0  0  0  0
   -1.6682    0.7183   -1.1606 H   0  0  0  0  0  0  0  0  0  0  0  0
   -2.4562   -0.6140   -0.1567 H   0  0  0  0  0  0  0  0  0  0  0  0
   -0.3668   -1.3105   -1.4771 H   0  0  0  0  0  0  0  0  0  0  0  0
   -1.2256   -2.4320    0.1965 H   0  0  0  0  0  0  0  0  0  0  0  0
    2.8302    0.5789    0.2598 H   0  0  0  0  0  0  0  0  0  0  0  0
    2.5938   -1.1405   -0.3576 H   0  0  0  0  0  0  0  0  0  0  0  0
    0.1878    2.1155   -0.0365 H   0  0  0  0  0  0  0  0  0  0  0  0
    0.8141    1.3866    1.5330 H   0  0  0  0  0  0  0  0  0  0  0  0
  1  2  2  0
  2  3  1  0
  3  4  1  0
  4  5  1  0
  4  6  1  0
  6  7  1  0
  7  8  1  0
  6  9  1  0
  9  2  1  0
  8  6  1  0
  3 10  1  0
  3 11  1  0
  4 12  1  0
  5 13  1  0
  7 14  1  0
  7 15  1  0
  9 16  1  0
  9 17  1  0
M  END
