
     RDKit          3D

 17 17  0  0  0  0  0  0  0  0999 V2000
   -0.8943   -2.5743   -0.4618 O   0  0  0  0  0  0  0  0  0  0  0  0
   -0.3822   -1.4672   -0.1733 C   0  0  0  0  0  0  0  0  0  0  0  0
    1.0724   -1.4170    0.0324 C   0  0  0  0  0  0  0  0  0  0  0  0
    1.8264   -0.3420    0.2766 C   0  0  0  0  0  0  0  0  0  0  0  0
    1.3623    1.0302    0.3931 C   0  0  0  0  0  0  0  0  0  0  0  0
    0.2575    1.5782   -0.0892 C   0  0  0  0  0  0  0  0  0  0  0  0
   -0.7918    0.8793   -0.8880 C   0  0  0  0  0  0  0  0  0  0  0  0
   -1.3045   -0.2827   -0.0624 C   0  0  0  0  0  0  0  0  0  0  0  0
   -1.3983    0.1453    1.2441 O   0  0  0  0  0  0  0  0  0  0  0  0
    1.5763   -2.3623   -0.0226 H   0  0  0  0  0  0  0  0  0  0  0  0
    2.8852   -0.5261    0.3975 H   0  0  0  0  0  0  0  0  0  0  0  0
    2.0021    1.7026    0.9488 H   0  0  0  0  0  0  0  0  0  0  0  0
    0.1000    2.6450    0.1184 H   0  0  0  0  0  0  0  0  0  0  0  0
   -0.3109    0.4118   -1.7950 H   0  0  0  0  0  0  0  0  0  0  0  0
   -1.5960    1.5401   -1.2009 H   0  0  0  0  0  0  0  0  0  0  0  0
   -2.3186   -0.5757   -0.4486 H   0  0  0  0  0  0  0  0  0  0  0  0
   -2.0856   -0.3853    1.7311 H   0  0  0  0  0  0  0  0  0  0  0  0
  1  2  2  0
  2  3  1  0
  3  4  2  0
  4  5  1  0
  5  6  2  0
  6  7  1  0
  7  8  1  0
  8  9  1  0
  8  2  1  0
  3 10  1  0
  4 11  1  0
  5 12  1  0
  6 13  1  0
  7 14  1  0
  7 15  1  0
  8 16  1  0
  9 17  1  0
M  END
