
     RDKit          3D

 15 16  0  0  0  0  0  0  0  0999 V2000
    3.0597    0.7026    0.1019 O   0  0  0  0  0  0  0  0  0  0  0  0
    1.8952    0.2805    0.2216 C   0  0  0  0  0  0  0  0  0  0  0  0
    1.4566   -0.7702   -0.5588 O   0  0  0  0  0  0  0  0  0  0  0  0
    0.1545   -1.2630   -0.6016 C   0  0  0  0  0  0  0  0  0  0  0  0
   -0.7811   -0.6515    0.3782 C   0  0  0  0  0  0  0  0  0  0  0  0
   -1.8143    0.0268   -0.3104 O   0  0  0  0  0  0  0  0  0  0  0  0
   -0.8977    1.0967   -0.4335 C   0  0  0  0  0  0  0  0  0  0  0  0
   -0.3603    0.6689    0.9210 C   0  0  0  0  0  0  0  0  0  0  0  0
    1.0004    0.8296    1.1219 O   0  0  0  0  0  0  0  0  0  0  0  0
   -0.1933   -1.1727   -1.6700 H   0  0  0  0  0  0  0  0  0  0  0  0
    0.2147   -2.3672   -0.3966 H   0  0  0  0  0  0  0  0  0  0  0  0
   -1.1705   -1.3064    1.1873 H   0  0  0  0  0  0  0  0  0  0  0  0
   -1.3420    2.0907   -0.4429 H   0  0  0  0  0  0  0  0  0  0  0  0
   -0.1992    0.8420   -1.2580 H   0  0  0  0  0  0  0  0  0  0  0  0
   -1.0228    0.9932    1.7399 H   0  0  0  0  0  0  0  0  0  0  0  0
  1  2  2  0
  2  3  1  0
  3  4  1  0
  4  5  1  0
  5  6  1  0
  6  7  1  0
  7  8  1  0
  8  9  1  0
  9  2  1  0
  8  5  1  0
  4 10  1  0
  4 11  1  0
  5 12  1  0
  7 13  1  0
  7 14  1  0
  8 15  1  0
M  END
