
     RDKit          3D

 16 16  0  0  0  0  0  0  0  0999 V2000
   -0.1317    1.6407    1.7674 O   0  0  0  0  0  0  0  0  0  0  0  0
   -0.0259    0.9795    0.7804 C   0  0  0  0  0  0  0  0  0  0  0  0
   -1.0260    1.0701   -0.2868 C   0  0  0  0  0  0  0  0  0  0  0  0
   -1.4429   -0.3792   -0.5834 C   0  0  0  0  0  0  0  0  0  0  0  0
   -0.3062   -1.0186   -1.0272 O   0  0  0  0  0  0  0  0  0  0  0  0
    0.6020   -1.2157   -0.0212 C   0  0  0  0  0  0  0  0  0  0  0  0
    1.1024    0.0614    0.6072 C   0  0  0  0  0  0  0  0  0  0  0  0
    2.0690    0.6943   -0.1661 O   0  0  0  0  0  0  0  0  0  0  0  0
   -0.5615    1.4306   -1.2320 H   0  0  0  0  0  0  0  0  0  0  0  0
   -1.9056    1.6749   -0.0003 H   0  0  0  0  0  0  0  0  0  0  0  0
   -2.2523   -0.3584   -1.3081 H   0  0  0  0  0  0  0  0  0  0  0  0
   -1.8138   -0.8047    0.3630 H   0  0  0  0  0  0  0  0  0  0  0  0
    1.4576   -1.7871   -0.4400 H   0  0  0  0  0  0  0  0  0  0  0  0
    0.2116   -1.8522    0.8182 H   0  0  0  0  0  0  0  0  0  0  0  0
    1.5814   -0.2339    1.5856 H   0  0  0  0  0  0  0  0  0  0  0  0
    2.4420    0.0982   -0.8566 H   0  0  0  0  0  0  0  0  0  0  0  0
  1  2  2  0
  2  3  1  0
  3  4  1  0
  4  5  1  0
  5  6  1  0
  6  7  1  0
  7  8  1  0
  7  2  1  0
  3  9  1  0
  3 10  1  0
  4 11  1  0
  4 12  1  0
  6 13  1  0
  6 14  1  0
  7 15  1  0
  8 16  1  0
M  END
