
     RDKit          3D

 17 18  0  0  0  0  0  0  0  0999 V2000
   -3.2085    1.4394   -0.6055 O   0  0  0  0  0  0  0  0  0  0  0  0
   -2.2777    0.6830   -0.4706 C   0  0  0  0  0  0  0  0  0  0  0  0
   -1.0654    0.1745   -1.1363 C   0  0  0  0  0  0  0  0  0  0  0  0
   -1.4331   -1.0800   -0.6758 O   0  0  0  0  0  0  0  0  0  0  0  0
   -1.6711   -0.2796    0.4466 C   0  0  0  0  0  0  0  0  0  0  0  0
   -0.3541    0.3621    0.1633 C   0  0  0  0  0  0  0  0  0  0  0  0
    0.7904   -0.5546    0.4425 C   0  0  0  0  0  0  0  0  0  0  0  0
    1.8905   -0.4321   -0.6053 C   0  0  0  0  0  0  0  0  0  0  0  0
    2.3977    0.8589   -0.6493 O   0  0  0  0  0  0  0  0  0  0  0  0
   -0.7338    0.4082   -2.0579 H   0  0  0  0  0  0  0  0  0  0  0  0
   -2.0203   -0.6062    1.3321 H   0  0  0  0  0  0  0  0  0  0  0  0
   -0.2337    1.4146    0.4242 H   0  0  0  0  0  0  0  0  0  0  0  0
    1.1836   -0.3156    1.4514 H   0  0  0  0  0  0  0  0  0  0  0  0
    0.4372   -1.5952    0.4184 H   0  0  0  0  0  0  0  0  0  0  0  0
    2.6653   -1.1854   -0.3458 H   0  0  0  0  0  0  0  0  0  0  0  0
    1.4470   -0.6595   -1.5909 H   0  0  0  0  0  0  0  0  0  0  0  0
    2.1861    1.3674    0.1892 H   0  0  0  0  0  0  0  0  0  0  0  0
  1  2  2  0
  2  3  1  0
  3  4  1  0
  4  5  1  0
  5  6  1  0
  6  7  1  0
  7  8  1  0
  8  9  1  0
  5  2  1  0
  6  3  1  0
  3 10  1  0
  5 11  1  0
  6 12  1  0
  7 13  1  0
  7 14  1  0
  8 15  1  0
  8 16  1  0
  9 17  1  0
M  END
