
     RDKit          3D

 15 17  0  0  0  0  0  0  0  0999 V2000
    2.7022    0.6286    0.7494 O   0  0  0  0  0  0  0  0  0  0  0  0
    1.7133    0.2458    0.2003 C   0  0  0  0  0  0  0  0  0  0  0  0
    0.8198   -0.9604    0.1061 C   0  0  0  0  0  0  0  0  0  0  0  0
    0.6885   -0.6125   -1.2593 O   0  0  0  0  0  0  0  0  0  0  0  0
    0.6749    0.7238   -0.7875 C   0  0  0  0  0  0  0  0  0  0  0  0
   -0.6217    0.9949   -0.0913 C   0  0  0  0  0  0  0  0  0  0  0  0
   -1.5218   -0.2459   -0.1817 C   0  0  0  0  0  0  0  0  0  0  0  0
   -0.4608   -0.6844    0.8368 C   0  0  0  0  0  0  0  0  0  0  0  0
   -0.4785    0.6591    1.2780 O   0  0  0  0  0  0  0  0  0  0  0  0
    1.3304   -1.8944    0.3044 H   0  0  0  0  0  0  0  0  0  0  0  0
    1.0299    1.4578   -1.5098 H   0  0  0  0  0  0  0  0  0  0  0  0
   -1.1198    1.9370   -0.2863 H   0  0  0  0  0  0  0  0  0  0  0  0
   -2.5211   -0.0965    0.2301 H   0  0  0  0  0  0  0  0  0  0  0  0
   -1.4361   -0.7338   -1.1530 H   0  0  0  0  0  0  0  0  0  0  0  0
   -0.7991   -1.4189    1.5638 H   0  0  0  0  0  0  0  0  0  0  0  0
  1  2  2  0
  2  3  1  0
  3  4  1  0
  4  5  1  0
  5  6  1  0
  6  7  1  0
  7  8  1  0
  8  9  1  0
  5  2  1  0
  9  6  1  0
  8  3  1  0
  3 10  1  0
  5 11  1  0
  6 12  1  0
  7 13  1  0
  7 14  1  0
  8 15  1  0
M  END
