
     RDKit          3D

 21 21  0  0  0  0  0  0  0  0999 V2000
   -1.7048    2.3695    0.8514 O   0  0  0  0  0  0  0  0  0  0  0  0
   -1.2552    1.4006    0.2658 C   0  0  0  0  0  0  0  0  0  0  0  0
   -2.1202    0.2638   -0.1142 C   0  0  0  0  0  0  0  0  0  0  0  0
   -1.4141   -1.0595   -0.0803 C   0  0  0  0  0  0  0  0  0  0  0  0
   -0.0001   -0.9173   -0.6522 C   0  0  0  0  0  0  0  0  0  0  0  0
    0.7296    0.0296    0.2661 C   0  0  0  0  0  0  0  0  0  0  0  0
    2.2242   -0.0503    0.1065 C   0  0  0  0  0  0  0  0  0  0  0  0
    2.6196   -1.3505    0.4012 O   0  0  0  0  0  0  0  0  0  0  0  0
    0.1983    1.4137   -0.0480 C   0  0  0  0  0  0  0  0  0  0  0  0
   -2.6221    0.4457   -1.1091 H   0  0  0  0  0  0  0  0  0  0  0  0
   -2.9820    0.1847    0.6056 H   0  0  0  0  0  0  0  0  0  0  0  0
   -1.9656   -1.7656   -0.7243 H   0  0  0  0  0  0  0  0  0  0  0  0
   -1.3011   -1.4036    0.9551 H   0  0  0  0  0  0  0  0  0  0  0  0
    0.4846   -1.8797   -0.7781 H   0  0  0  0  0  0  0  0  0  0  0  0
   -0.0994   -0.4617   -1.6742 H   0  0  0  0  0  0  0  0  0  0  0  0
    0.4568   -0.1858    1.3329 H   0  0  0  0  0  0  0  0  0  0  0  0
    2.7623    0.7157    0.6674 H   0  0  0  0  0  0  0  0  0  0  0  0
    2.4705    0.1112   -0.9725 H   0  0  0  0  0  0  0  0  0  0  0  0
    2.4440   -1.5929    1.3425 H   0  0  0  0  0  0  0  0  0  0  0  0
    0.3409    1.5458   -1.1561 H   0  0  0  0  0  0  0  0  0  0  0  0
    0.7337    2.1867    0.5144 H   0  0  0  0  0  0  0  0  0  0  0  0
  1  2  2  0
  2  3  1  0
  3  4  1  0
  4  5  1  0
  5  6  1  0
  6  7  1  0
  7  8  1  0
  6  9  1  0
  9  2  1  0
  3 10  1  0
  3 11  1  0
  4 12  1  0
  4 13  1  0
  5 14  1  0
  5 15  1  0
  6 16  1  0
  7 17  1  0
  7 18  1  0
  8 19  1  0
  9 20  1  0
  9 21  1  0
M  END
