
     RDKit          3D

 19 20  0  0  0  0  0  0  0  0999 V2000
   -1.4802   -0.8853   -1.9637 O   0  0  0  0  0  0  0  0  0  0  0  0
   -1.2756   -0.1137   -1.0688 C   0  0  0  0  0  0  0  0  0  0  0  0
   -2.0389    0.4521    0.0616 C   0  0  0  0  0  0  0  0  0  0  0  0
   -2.9201   -0.3918    0.6967 O   0  0  0  0  0  0  0  0  0  0  0  0
   -0.6839    0.6098    0.7685 C   0  0  0  0  0  0  0  0  0  0  0  0
   -0.1265    0.6963   -0.6145 C   0  0  0  0  0  0  0  0  0  0  0  0
    1.2321    0.1011   -0.8369 C   0  0  0  0  0  0  0  0  0  0  0  0
    1.6252   -1.1939   -0.2366 C   0  0  0  0  0  0  0  0  0  0  0  0
    2.2614    0.1099    0.2342 C   0  0  0  0  0  0  0  0  0  0  0  0
   -2.4781    1.4481   -0.2343 H   0  0  0  0  0  0  0  0  0  0  0  0
   -3.0487   -1.1927    0.1214 H   0  0  0  0  0  0  0  0  0  0  0  0
   -0.4628   -0.3240    1.3289 H   0  0  0  0  0  0  0  0  0  0  0  0
   -0.7017    1.5315    1.3556 H   0  0  0  0  0  0  0  0  0  0  0  0
   -0.1444    1.7609   -0.9667 H   0  0  0  0  0  0  0  0  0  0  0  0
    1.6264    0.2744   -1.8605 H   0  0  0  0  0  0  0  0  0  0  0  0
    0.9371   -1.6989    0.4661 H   0  0  0  0  0  0  0  0  0  0  0  0
    2.3041   -1.8895   -0.8104 H   0  0  0  0  0  0  0  0  0  0  0  0
    3.3383    0.2861   -0.0392 H   0  0  0  0  0  0  0  0  0  0  0  0
    2.0363    0.4196    1.2657 H   0  0  0  0  0  0  0  0  0  0  0  0
  1  2  2  0
  2  3  1  0
  3  4  1  0
  3  5  1  0
  5  6  1  0
  6  7  1  0
  7  8  1  0
  8  9  1  0
  6  2  1  0
  9  7  1  0
  3 10  1  0
  4 11  1  0
  5 12  1  0
  5 13  1  0
  6 14  1  0
  7 15  1  0
  8 16  1  0
  8 17  1  0
  9 18  1  0
  9 19  1  0
M  END
