
     RDKit          3D

 17 19  0  0  0  0  0  0  0  0999 V2000
   -1.3741    2.3961   -1.2225 O   0  0  0  0  0  0  0  0  0  0  0  0
   -1.1676    1.4039   -0.4819 C   0  0  0  0  0  0  0  0  0  0  0  0
   -1.2571    1.2267    0.8921 O   0  0  0  0  0  0  0  0  0  0  0  0
   -0.7130   -0.0770    0.8436 C   0  0  0  0  0  0  0  0  0  0  0  0
    0.7182   -0.2906    1.2186 C   0  0  0  0  0  0  0  0  0  0  0  0
    1.4358    0.4057    0.0640 C   0  0  0  0  0  0  0  0  0  0  0  0
    0.6740   -0.2300   -1.1031 C   0  0  0  0  0  0  0  0  0  0  0  0
   -0.7503    0.0095   -0.6891 C   0  0  0  0  0  0  0  0  0  0  0  0
   -1.4384   -1.0894    0.0358 C   0  0  0  0  0  0  0  0  0  0  0  0
    0.9690    0.1804    2.1862 H   0  0  0  0  0  0  0  0  0  0  0  0
    0.9277   -1.3730    1.1889 H   0  0  0  0  0  0  0  0  0  0  0  0
    2.4979    0.1985    0.0348 H   0  0  0  0  0  0  0  0  0  0  0  0
    1.1507    1.4572    0.0949 H   0  0  0  0  0  0  0  0  0  0  0  0
    0.9556    0.2812   -2.0332 H   0  0  0  0  0  0  0  0  0  0  0  0
    0.8950   -1.3154   -1.1070 H   0  0  0  0  0  0  0  0  0  0  0  0
   -0.9918   -2.0890   -0.0920 H   0  0  0  0  0  0  0  0  0  0  0  0
   -2.5316   -1.0948    0.1700 H   0  0  0  0  0  0  0  0  0  0  0  0
  1  2  2  0
  2  3  1  0
  3  4  1  0
  4  5  1  0
  5  6  1  0
  6  7  1  0
  7  8  1  0
  8  9  1  0
  8  2  1  0
  8  4  1  0
  9  4  1  0
  5 10  1  0
  5 11  1  0
  6 12  1  0
  6 13  1  0
  7 14  1  0
  7 15  1  0
  9 16  1  0
  9 17  1  0
M  END
