
     RDKit          3D

 17 17  0  0  0  0  0  0  0  0999 V2000
    0.7808    0.6209    2.2580 O   0  0  0  0  0  0  0  0  0  0  0  0
    0.6884    0.2148    1.1181 C   0  0  0  0  0  0  0  0  0  0  0  0
    1.4952   -0.8064    0.3972 C   0  0  0  0  0  0  0  0  0  0  0  0
    1.5551   -0.1709   -0.9537 C   0  0  0  0  0  0  0  0  0  0  0  0
    0.5396    0.6507   -1.1284 C   0  0  0  0  0  0  0  0  0  0  0  0
   -0.2914    0.6388    0.0863 C   0  0  0  0  0  0  0  0  0  0  0  0
   -0.8438    1.8828    0.3789 O   0  0  0  0  0  0  0  0  0  0  0  0
   -1.3572   -0.4412    0.0199 C   0  0  0  0  0  0  0  0  0  0  0  0
   -2.3063   -0.1642   -0.9591 O   0  0  0  0  0  0  0  0  0  0  0  0
    2.4900   -0.9620    0.8366 H   0  0  0  0  0  0  0  0  0  0  0  0
    0.9826   -1.7791    0.4080 H   0  0  0  0  0  0  0  0  0  0  0  0
    2.3456   -0.3798   -1.6750 H   0  0  0  0  0  0  0  0  0  0  0  0
    0.3404    1.2512   -2.0344 H   0  0  0  0  0  0  0  0  0  0  0  0
   -0.5828    2.1171    1.3175 H   0  0  0  0  0  0  0  0  0  0  0  0
   -1.8936   -0.4877    0.9892 H   0  0  0  0  0  0  0  0  0  0  0  0
   -0.8858   -1.3837   -0.2517 H   0  0  0  0  0  0  0  0  0  0  0  0
   -3.0569   -0.8012   -0.8076 H   0  0  0  0  0  0  0  0  0  0  0  0
  1  2  2  0
  2  3  1  0
  3  4  1  0
  4  5  2  0
  5  6  1  0
  6  7  1  0
  6  8  1  0
  8  9  1  0
  6  2  1  0
  3 10  1  0
  3 11  1  0
  4 12  1  0
  5 13  1  0
  7 14  1  0
  8 15  1  0
  8 16  1  0
  9 17  1  0
M  END
