
     RDKit          3D

 19 20  0  0  0  0  0  0  0  0999 V2000
   -0.6284    2.3719    0.9954 O   0  0  0  0  0  0  0  0  0  0  0  0
   -0.0184    1.3902    0.5000 C   0  0  0  0  0  0  0  0  0  0  0  0
    1.3481    1.4337    0.5537 O   0  0  0  0  0  0  0  0  0  0  0  0
    2.1903    0.3385    0.2902 C   0  0  0  0  0  0  0  0  0  0  0  0
    1.5128   -0.9784    0.2750 C   0  0  0  0  0  0  0  0  0  0  0  0
    0.1038   -1.0235   -0.1303 C   0  0  0  0  0  0  0  0  0  0  0  0
   -0.6765    0.2393   -0.1119 C   0  0  0  0  0  0  0  0  0  0  0  0
   -1.7439    0.3966   -1.1486 C   0  0  0  0  0  0  0  0  0  0  0  0
   -2.1779    0.1312    0.2407 C   0  0  0  0  0  0  0  0  0  0  0  0
    3.0063    0.3852    1.0609 H   0  0  0  0  0  0  0  0  0  0  0  0
    2.7087    0.5705   -0.6760 H   0  0  0  0  0  0  0  0  0  0  0  0
    1.6220   -1.4349    1.3004 H   0  0  0  0  0  0  0  0  0  0  0  0
    2.1440   -1.6625   -0.3689 H   0  0  0  0  0  0  0  0  0  0  0  0
    0.0435   -1.4460   -1.1650 H   0  0  0  0  0  0  0  0  0  0  0  0
   -0.4588   -1.7696    0.5003 H   0  0  0  0  0  0  0  0  0  0  0  0
   -1.8910   -0.4445   -1.8583 H   0  0  0  0  0  0  0  0  0  0  0  0
   -1.9401    1.3849   -1.6053 H   0  0  0  0  0  0  0  0  0  0  0  0
   -2.4999   -0.8629    0.5827 H   0  0  0  0  0  0  0  0  0  0  0  0
   -2.6445    0.9804    0.7651 H   0  0  0  0  0  0  0  0  0  0  0  0
  1  2  2  0
  2  3  1  0
  3  4  1  0
  4  5  1  0
  5  6  1  0
  6  7  1  0
  7  8  1  0
  8  9  1  0
  7  2  1  0
  9  7  1  0
  4 10  1  0
  4 11  1  0
  5 12  1  0
  5 13  1  0
  6 14  1  0
  6 15  1  0
  8 16  1  0
  8 17  1  0
  9 18  1  0
  9 19  1  0
M  END
