
     RDKit          3D

 17 19  0  0  0  0  0  0  0  0999 V2000
   -1.7247    0.7314    2.0700 O   0  0  0  0  0  0  0  0  0  0  0  0
   -1.2182    0.5564    0.9621 C   0  0  0  0  0  0  0  0  0  0  0  0
   -0.3656    1.3023   -0.0039 C   0  0  0  0  0  0  0  0  0  0  0  0
    1.0684    1.3358    0.3200 C   0  0  0  0  0  0  0  0  0  0  0  0
    1.6855    0.2311   -0.0726 C   0  0  0  0  0  0  0  0  0  0  0  0
    0.7204   -0.6997   -0.7221 C   0  0  0  0  0  0  0  0  0  0  0  0
   -0.0942   -1.5209    0.2669 C   0  0  0  0  0  0  0  0  0  0  0  0
   -1.2435   -0.5748    0.0325 C   0  0  0  0  0  0  0  0  0  0  0  0
   -0.4594    0.1556   -0.9606 C   0  0  0  0  0  0  0  0  0  0  0  0
   -0.8428    2.2449   -0.2949 H   0  0  0  0  0  0  0  0  0  0  0  0
    1.5603    2.1578    0.8163 H   0  0  0  0  0  0  0  0  0  0  0  0
    2.7382    0.0276    0.0567 H   0  0  0  0  0  0  0  0  0  0  0  0
    1.1122   -1.2929   -1.5532 H   0  0  0  0  0  0  0  0  0  0  0  0
    0.3479   -1.4118    1.2789 H   0  0  0  0  0  0  0  0  0  0  0  0
   -0.2636   -2.5656   -0.0116 H   0  0  0  0  0  0  0  0  0  0  0  0
   -2.2031   -1.0134   -0.2262 H   0  0  0  0  0  0  0  0  0  0  0  0
   -0.8176    0.3359   -1.9581 H   0  0  0  0  0  0  0  0  0  0  0  0
  1  2  2  0
  2  3  1  0
  3  4  1  0
  4  5  2  0
  5  6  1  0
  6  7  1  0
  7  8  1  0
  8  9  1  0
  8  2  1  0
  9  3  1  0
  9  6  1  0
  3 10  1  0
  4 11  1  0
  5 12  1  0
  6 13  1  0
  7 14  1  0
  7 15  1  0
  8 16  1  0
  9 17  1  0
M  END
