
     RDKit          3D

 17 19  0  0  0  0  0  0  0  0999 V2000
   -2.3085    1.5363    0.2180 O   0  0  0  0  0  0  0  0  0  0  0  0
   -1.3301    0.8352    0.0973 C   0  0  0  0  0  0  0  0  0  0  0  0
   -1.2712   -0.6094    0.5396 C   0  0  0  0  0  0  0  0  0  0  0  0
   -0.1135   -1.1649   -0.2188 C   0  0  0  0  0  0  0  0  0  0  0  0
    1.2158   -0.6594    0.2900 C   0  0  0  0  0  0  0  0  0  0  0  0
    1.0103    0.7905    0.6591 C   0  0  0  0  0  0  0  0  0  0  0  0
    0.0076    1.1085   -0.4629 C   0  0  0  0  0  0  0  0  0  0  0  0
    0.2543   -0.1432   -1.2772 C   0  0  0  0  0  0  0  0  0  0  0  0
    1.5620   -0.5230   -1.0729 O   0  0  0  0  0  0  0  0  0  0  0  0
   -2.2010   -1.1427    0.3037 H   0  0  0  0  0  0  0  0  0  0  0  0
   -1.0192   -0.6463    1.6361 H   0  0  0  0  0  0  0  0  0  0  0  0
   -0.1129   -2.1999   -0.5047 H   0  0  0  0  0  0  0  0  0  0  0  0
    1.8187   -1.2812    0.8994 H   0  0  0  0  0  0  0  0  0  0  0  0
    1.9304    1.3455    0.4401 H   0  0  0  0  0  0  0  0  0  0  0  0
    0.5842    0.9449    1.6462 H   0  0  0  0  0  0  0  0  0  0  0  0
    0.1637    2.0360   -0.9520 H   0  0  0  0  0  0  0  0  0  0  0  0
   -0.1908   -0.2269   -2.2410 H   0  0  0  0  0  0  0  0  0  0  0  0
  1  2  2  0
  2  3  1  0
  3  4  1  0
  4  5  1  0
  5  6  1  0
  6  7  1  0
  7  8  1  0
  8  9  1  0
  7  2  1  0
  8  4  1  0
  9  5  1  0
  3 10  1  0
  3 11  1  0
  4 12  1  0
  5 13  1  0
  6 14  1  0
  6 15  1  0
  7 16  1  0
  8 17  1  0
M  END
