
     RDKit          3D

 17 19  0  0  0  0  0  0  0  0999 V2000
    1.9596   -2.0010   -1.0537 O   0  0  0  0  0  0  0  0  0  0  0  0
    1.7062   -1.0576   -0.3600 C   0  0  0  0  0  0  0  0  0  0  0  0
    2.4137   -0.1274    0.5397 C   0  0  0  0  0  0  0  0  0  0  0  0
    1.1911    0.3787    1.0425 O   0  0  0  0  0  0  0  0  0  0  0  0
    0.5618   -0.2718    0.0076 C   0  0  0  0  0  0  0  0  0  0  0  0
   -0.7981   -0.7775    0.0470 C   0  0  0  0  0  0  0  0  0  0  0  0
   -1.9157    0.0807    0.5633 C   0  0  0  0  0  0  0  0  0  0  0  0
   -1.4123    1.2760   -0.2164 C   0  0  0  0  0  0  0  0  0  0  0  0
   -0.3793    0.3819   -0.8999 C   0  0  0  0  0  0  0  0  0  0  0  0
    2.9988   -0.5687    1.3533 H   0  0  0  0  0  0  0  0  0  0  0  0
    2.9309    0.6541   -0.0620 H   0  0  0  0  0  0  0  0  0  0  0  0
   -1.0153   -1.7377   -0.4609 H   0  0  0  0  0  0  0  0  0  0  0  0
   -1.8308    0.1812    1.6664 H   0  0  0  0  0  0  0  0  0  0  0  0
   -2.8927   -0.3128    0.2225 H   0  0  0  0  0  0  0  0  0  0  0  0
   -2.1342    1.7392   -0.9043 H   0  0  0  0  0  0  0  0  0  0  0  0
   -0.9232    1.9885    0.4774 H   0  0  0  0  0  0  0  0  0  0  0  0
   -0.4605    0.1741   -1.9625 H   0  0  0  0  0  0  0  0  0  0  0  0
  1  2  2  0
  2  3  1  0
  3  4  1  0
  4  5  1  0
  5  6  1  0
  6  7  1  0
  7  8  1  0
  8  9  1  0
  5  2  1  0
  9  6  1  0
  9  5  1  0
  3 10  1  0
  3 11  1  0
  6 12  1  0
  7 13  1  0
  7 14  1  0
  8 15  1  0
  8 16  1  0
  9 17  1  0
M  END
