
     RDKit          3D

 21 22  0  0  0  0  0  0  0  0999 V2000
    0.0256    0.6430    2.2925 O   0  0  0  0  0  0  0  0  0  0  0  0
   -0.4378    0.2790    1.2284 C   0  0  0  0  0  0  0  0  0  0  0  0
   -1.8664   -0.1198    1.0791 C   0  0  0  0  0  0  0  0  0  0  0  0
   -1.9814   -0.5921   -0.3571 C   0  0  0  0  0  0  0  0  0  0  0  0
   -0.8506    0.0646   -1.1217 C   0  0  0  0  0  0  0  0  0  0  0  0
    0.2248    0.1493   -0.0653 C   0  0  0  0  0  0  0  0  0  0  0  0
    1.2946    1.1986   -0.3440 C   0  0  0  0  0  0  0  0  0  0  0  0
    2.3096    0.1603    0.1471 C   0  0  0  0  0  0  0  0  0  0  0  0
    1.2715   -0.9042   -0.2130 C   0  0  0  0  0  0  0  0  0  0  0  0
   -2.5436    0.7542    1.2773 H   0  0  0  0  0  0  0  0  0  0  0  0
   -2.0405   -0.9388    1.8093 H   0  0  0  0  0  0  0  0  0  0  0  0
   -2.9296   -0.2986   -0.8331 H   0  0  0  0  0  0  0  0  0  0  0  0
   -1.8003   -1.6833   -0.3597 H   0  0  0  0  0  0  0  0  0  0  0  0
   -1.1231    1.0697   -1.4925 H   0  0  0  0  0  0  0  0  0  0  0  0
   -0.5569   -0.6371   -1.9293 H   0  0  0  0  0  0  0  0  0  0  0  0
    1.2023    2.0853    0.2913 H   0  0  0  0  0  0  0  0  0  0  0  0
    1.3745    1.3630   -1.4256 H   0  0  0  0  0  0  0  0  0  0  0  0
    3.2294    0.1082   -0.4271 H   0  0  0  0  0  0  0  0  0  0  0  0
    2.5142    0.2570    1.2208 H   0  0  0  0  0  0  0  0  0  0  0  0
    1.4422   -1.2070   -1.2691 H   0  0  0  0  0  0  0  0  0  0  0  0
    1.2416   -1.7514    0.4916 H   0  0  0  0  0  0  0  0  0  0  0  0
  1  2  2  0
  2  3  1  0
  3  4  1  0
  4  5  1  0
  5  6  1  0
  6  7  1  0
  7  8  1  0
  8  9  1  0
  6  2  1  0
  9  6  1  0
  3 10  1  0
  3 11  1  0
  4 12  1  0
  4 13  1  0
  5 14  1  0
  5 15  1  0
  7 16  1  0
  7 17  1  0
  8 18  1  0
  8 19  1  0
  9 20  1  0
  9 21  1  0
M  END
