
     RDKit          3D

 19 20  0  0  0  0  0  0  0  0999 V2000
    2.4803   -0.7887    1.2228 O   0  0  0  0  0  0  0  0  0  0  0  0
    1.5196   -0.3684    0.6413 C   0  0  0  0  0  0  0  0  0  0  0  0
    1.2494    1.1072    0.4875 C   0  0  0  0  0  0  0  0  0  0  0  0
   -0.1887    1.3860    0.2320 C   0  0  0  0  0  0  0  0  0  0  0  0
   -0.9629    0.1784   -0.2122 C   0  0  0  0  0  0  0  0  0  0  0  0
   -2.2433    0.4233   -0.6052 O   0  0  0  0  0  0  0  0  0  0  0  0
   -0.8040   -0.9954    0.7248 C   0  0  0  0  0  0  0  0  0  0  0  0
    0.5198   -1.2714    0.0266 C   0  0  0  0  0  0  0  0  0  0  0  0
   -0.0953   -0.5961   -1.2042 C   0  0  0  0  0  0  0  0  0  0  0  0
    1.8770    1.4107   -0.4018 H   0  0  0  0  0  0  0  0  0  0  0  0
    1.5857    1.6551    1.3970 H   0  0  0  0  0  0  0  0  0  0  0  0
   -0.2511    2.1313   -0.5989 H   0  0  0  0  0  0  0  0  0  0  0  0
   -0.7176    1.8449    1.0871 H   0  0  0  0  0  0  0  0  0  0  0  0
   -2.5451   -0.0167   -1.4160 H   0  0  0  0  0  0  0  0  0  0  0  0
   -1.5528   -1.7743    0.4836 H   0  0  0  0  0  0  0  0  0  0  0  0
   -0.6913   -0.7292    1.7834 H   0  0  0  0  0  0  0  0  0  0  0  0
    0.7911   -2.3140   -0.0984 H   0  0  0  0  0  0  0  0  0  0  0  0
    0.6694    0.0069   -1.7027 H   0  0  0  0  0  0  0  0  0  0  0  0
   -0.6403   -1.2896   -1.8468 H   0  0  0  0  0  0  0  0  0  0  0  0
  1  2  2  0
  2  3  1  0
  3  4  1  0
  4  5  1  0
  5  6  1  0
  5  7  1  0
  7  8  1  0
  8  9  1  0
  8  2  1  0
  9  5  1  0
  3 10  1  0
  3 11  1  0
  4 12  1  0
  4 13  1  0
  6 14  1  0
  7 15  1  0
  7 16  1  0
  8 17  1  0
  9 18  1  0
  9 19  1  0
M  END
