
     RDKit          3D

 15 16  0  0  0  0  0  0  0  0999 V2000
   -2.5447    0.7873    1.1787 O   0  0  0  0  0  0  0  0  0  0  0  0
   -1.5981    0.3981    0.4595 C   0  0  0  0  0  0  0  0  0  0  0  0
   -1.5531   -0.8022   -0.3707 C   0  0  0  0  0  0  0  0  0  0  0  0
   -0.2930   -1.1323   -0.6169 C   0  0  0  0  0  0  0  0  0  0  0  0
    0.5961   -0.1530    0.0478 C   0  0  0  0  0  0  0  0  0  0  0  0
    1.9187   -0.3527    0.3026 C   0  0  0  0  0  0  0  0  0  0  0  0
    0.9802   -0.6910    1.4042 O   0  0  0  0  0  0  0  0  0  0  0  0
   -0.2712    1.0302    0.2446 C   0  0  0  0  0  0  0  0  0  0  0  0
   -0.3539    1.7640   -0.9357 O   0  0  0  0  0  0  0  0  0  0  0  0
   -2.4221   -1.3615   -0.7447 H   0  0  0  0  0  0  0  0  0  0  0  0
    0.0083   -1.9859   -1.2116 H   0  0  0  0  0  0  0  0  0  0  0  0
    2.6158    0.4393    0.6435 H   0  0  0  0  0  0  0  0  0  0  0  0
    2.4491   -1.2826    0.0214 H   0  0  0  0  0  0  0  0  0  0  0  0
    0.0284    1.6795    1.0880 H   0  0  0  0  0  0  0  0  0  0  0  0
    0.4395    1.6628   -1.5107 H   0  0  0  0  0  0  0  0  0  0  0  0
  1  2  2  0
  2  3  1  0
  3  4  2  0
  4  5  1  0
  5  6  1  0
  6  7  1  0
  5  8  1  0
  8  9  1  0
  8  2  1  0
  7  5  1  0
  3 10  1  0
  4 11  1  0
  6 12  1  0
  6 13  1  0
  8 14  1  0
  9 15  1  0
M  END
