
     RDKit          3D

 11 11  0  0  0  0  0  0  0  0999 V2000
    0.5583    2.1168    0.8334 O   0  0  0  0  0  0  0  0  0  0  0  0
    0.2772    1.0602    0.2959 C   0  0  0  0  0  0  0  0  0  0  0  0
   -0.8774    0.4170   -0.3890 C   0  0  0  0  0  0  0  0  0  0  0  0
   -0.3470   -0.9036    0.1924 C   0  0  0  0  0  0  0  0  0  0  0  0
    1.0138   -0.2074    0.0413 C   0  0  0  0  0  0  0  0  0  0  0  0
   -1.8672    0.6964   -0.0537 H   0  0  0  0  0  0  0  0  0  0  0  0
   -0.7010    0.4647   -1.4959 H   0  0  0  0  0  0  0  0  0  0  0  0
   -0.4914   -1.7759   -0.4399 H   0  0  0  0  0  0  0  0  0  0  0  0
   -0.6433   -1.0132    1.2449 H   0  0  0  0  0  0  0  0  0  0  0  0
    1.7433   -0.5019    0.7932 H   0  0  0  0  0  0  0  0  0  0  0  0
    1.3347   -0.3531   -1.0227 H   0  0  0  0  0  0  0  0  0  0  0  0
  1  2  2  0
  2  3  1  0
  3  4  1  0
  4  5  1  0
  5  2  1  0
  3  6  1  0
  3  7  1  0
  4  8  1  0
  4  9  1  0
  5 10  1  0
  5 11  1  0
M  END
