
     RDKit          3D

 17 19  0  0  0  0  0  0  0  0999 V2000
    2.5307   -0.8604   -1.4652 O   0  0  0  0  0  0  0  0  0  0  0  0
    1.9377   -0.1797   -0.5958 C   0  0  0  0  0  0  0  0  0  0  0  0
    2.3539    0.8374    0.2877 O   0  0  0  0  0  0  0  0  0  0  0  0
    1.0361    0.9889    0.8534 C   0  0  0  0  0  0  0  0  0  0  0  0
    0.6355   -0.0523   -0.0531 C   0  0  0  0  0  0  0  0  0  0  0  0
   -0.1258   -1.2615    0.4309 C   0  0  0  0  0  0  0  0  0  0  0  0
   -1.2472   -0.2200    0.4754 C   0  0  0  0  0  0  0  0  0  0  0  0
   -1.9003    0.4234   -0.6042 C   0  0  0  0  0  0  0  0  0  0  0  0
   -0.5612    0.0652   -0.9339 C   0  0  0  0  0  0  0  0  0  0  0  0
    1.0903    0.7653    1.9473 H   0  0  0  0  0  0  0  0  0  0  0  0
    0.7057    2.0330    0.6296 H   0  0  0  0  0  0  0  0  0  0  0  0
   -0.2331   -1.9882   -0.3983 H   0  0  0  0  0  0  0  0  0  0  0  0
    0.1450   -1.6451    1.4041 H   0  0  0  0  0  0  0  0  0  0  0  0
   -0.9232    0.5130    1.2857 H   0  0  0  0  0  0  0  0  0  0  0  0
   -2.1098    1.5378   -0.6191 H   0  0  0  0  0  0  0  0  0  0  0  0
   -2.8076   -0.0989   -1.0384 H   0  0  0  0  0  0  0  0  0  0  0  0
   -0.5267   -0.8578   -1.6061 H   0  0  0  0  0  0  0  0  0  0  0  0
  1  2  2  0
  2  3  1  0
  3  4  1  0
  4  5  1  0
  5  6  1  0
  6  7  1  0
  7  8  1  0
  8  9  1  0
  5  2  1  0
  9  7  1  0
  9  5  1  0
  4 10  1  0
  4 11  1  0
  6 12  1  0
  6 13  1  0
  7 14  1  0
  8 15  1  0
  8 16  1  0
  9 17  1  0
M  END
