
     RDKit          3D

 17 18  0  0  0  0  0  0  0  0999 V2000
   -0.3260   -0.4063    2.4780 O   0  0  0  0  0  0  0  0  0  0  0  0
   -0.5827   -0.1787    1.3140 C   0  0  0  0  0  0  0  0  0  0  0  0
   -0.7304    1.0571    0.4899 C   0  0  0  0  0  0  0  0  0  0  0  0
    0.6192    1.3130   -0.0854 C   0  0  0  0  0  0  0  0  0  0  0  0
    1.5097    0.4199   -0.4951 C   0  0  0  0  0  0  0  0  0  0  0  0
    1.4050   -1.0839   -0.4170 C   0  0  0  0  0  0  0  0  0  0  0  0
    0.1307   -1.5297   -0.5616 O   0  0  0  0  0  0  0  0  0  0  0  0
   -0.8752   -0.9816    0.1356 C   0  0  0  0  0  0  0  0  0  0  0  0
   -1.5248    0.2369   -0.5169 C   0  0  0  0  0  0  0  0  0  0  0  0
   -1.2336    1.8970    0.9426 H   0  0  0  0  0  0  0  0  0  0  0  0
    0.8595    2.3632   -0.1595 H   0  0  0  0  0  0  0  0  0  0  0  0
    2.4216    0.7827   -0.9384 H   0  0  0  0  0  0  0  0  0  0  0  0
    1.8470   -1.3389    0.5885 H   0  0  0  0  0  0  0  0  0  0  0  0
    2.0426   -1.5546   -1.1753 H   0  0  0  0  0  0  0  0  0  0  0  0
   -1.7029   -1.7387    0.2879 H   0  0  0  0  0  0  0  0  0  0  0  0
   -1.2508    0.4054   -1.5612 H   0  0  0  0  0  0  0  0  0  0  0  0
   -2.6086    0.3371   -0.3262 H   0  0  0  0  0  0  0  0  0  0  0  0
  1  2  2  0
  2  3  1  0
  3  4  1  0
  4  5  2  0
  5  6  1  0
  6  7  1  0
  7  8  1  0
  8  9  1  0
  8  2  1  0
  9  3  1  0
  3 10  1  0
  4 11  1  0
  5 12  1  0
  6 13  1  0
  6 14  1  0
  8 15  1  0
  9 16  1  0
  9 17  1  0
M  END
