
     RDKit          3D

 17 18  0  0  0  0  0  0  0  0999 V2000
   -1.0309   -1.7636   -1.4710 O   0  0  0  0  0  0  0  0  0  0  0  0
   -0.7040   -0.8532   -0.7649 C   0  0  0  0  0  0  0  0  0  0  0  0
   -1.3263    0.4202   -0.3287 C   0  0  0  0  0  0  0  0  0  0  0  0
   -2.4547    0.8776   -0.6094 O   0  0  0  0  0  0  0  0  0  0  0  0
   -0.7980    0.0581    1.0520 C   0  0  0  0  0  0  0  0  0  0  0  0
    0.3247   -0.2746    0.1032 C   0  0  0  0  0  0  0  0  0  0  0  0
    1.5506   -0.7916    0.4252 C   0  0  0  0  0  0  0  0  0  0  0  0
    2.3705   -0.9946   -0.6998 O   0  0  0  0  0  0  0  0  0  0  0  0
    0.0274    1.0398   -0.5591 C   0  0  0  0  0  0  0  0  0  0  0  0
   -3.0619    1.2033    0.1016 H   0  0  0  0  0  0  0  0  0  0  0  0
   -1.3207   -0.7866    1.5108 H   0  0  0  0  0  0  0  0  0  0  0  0
   -0.6019    0.9324    1.6777 H   0  0  0  0  0  0  0  0  0  0  0  0
    2.1442   -0.1431    1.1146 H   0  0  0  0  0  0  0  0  0  0  0  0
    1.4999   -1.7781    0.9302 H   0  0  0  0  0  0  0  0  0  0  0  0
    2.8215   -0.1687   -0.9845 H   0  0  0  0  0  0  0  0  0  0  0  0
    0.3541    1.1297   -1.5946 H   0  0  0  0  0  0  0  0  0  0  0  0
    0.2056    1.8930    0.0968 H   0  0  0  0  0  0  0  0  0  0  0  0
  1  2  2  0
  2  3  1  0
  3  4  1  0
  3  5  1  0
  5  6  1  0
  6  7  1  0
  7  8  1  0
  6  9  1  0
  6  2  1  0
  9  3  1  0
  4 10  1  0
  5 11  1  0
  5 12  1  0
  7 13  1  0
  7 14  1  0
  8 15  1  0
  9 16  1  0
  9 17  1  0
M  END
