
     RDKit          3D

 19 19  0  0  0  0  0  0  0  0999 V2000
    0.7411    2.0218   -1.0050 O   0  0  0  0  0  0  0  0  0  0  0  0
    0.2797    1.1438   -0.3255 C   0  0  0  0  0  0  0  0  0  0  0  0
   -1.1653    0.8395   -0.3560 C   0  0  0  0  0  0  0  0  0  0  0  0
   -1.9092    1.6576    0.4993 O   0  0  0  0  0  0  0  0  0  0  0  0
   -1.4083   -0.6356   -0.0634 C   0  0  0  0  0  0  0  0  0  0  0  0
   -0.1545   -1.3780   -0.5436 C   0  0  0  0  0  0  0  0  0  0  0  0
    0.9011   -1.1158    0.5229 C   0  0  0  0  0  0  0  0  0  0  0  0
    1.1662    0.3563    0.5531 C   0  0  0  0  0  0  0  0  0  0  0  0
    2.5136    0.5764    0.3173 O   0  0  0  0  0  0  0  0  0  0  0  0
   -1.5013    1.0043   -1.4165 H   0  0  0  0  0  0  0  0  0  0  0  0
   -1.4155    2.4821    0.7548 H   0  0  0  0  0  0  0  0  0  0  0  0
   -2.2787   -0.9612   -0.6314 H   0  0  0  0  0  0  0  0  0  0  0  0
   -1.5223   -0.7226    1.0389 H   0  0  0  0  0  0  0  0  0  0  0  0
    0.1173   -0.9061   -1.5118 H   0  0  0  0  0  0  0  0  0  0  0  0
   -0.3694   -2.4586   -0.6480 H   0  0  0  0  0  0  0  0  0  0  0  0
    1.8170   -1.6898    0.3619 H   0  0  0  0  0  0  0  0  0  0  0  0
    0.4530   -1.4886    1.4795 H   0  0  0  0  0  0  0  0  0  0  0  0
    0.9750    0.7035    1.6091 H   0  0  0  0  0  0  0  0  0  0  0  0
    2.7606    0.5711   -0.6355 H   0  0  0  0  0  0  0  0  0  0  0  0
  1  2  2  0
  2  3  1  0
  3  4  1  0
  3  5  1  0
  5  6  1  0
  6  7  1  0
  7  8  1  0
  8  9  1  0
  8  2  1  0
  3 10  1  0
  4 11  1  0
  5 12  1  0
  5 13  1  0
  6 14  1  0
  6 15  1  0
  7 16  1  0
  7 17  1  0
  8 18  1  0
  9 19  1  0
M  END
