
     RDKit          3D

 17 18  0  0  0  0  0  0  0  0999 V2000
    1.4800    2.2241   -0.4984 O   0  0  0  0  0  0  0  0  0  0  0  0
    0.8649    1.2101   -0.2440 C   0  0  0  0  0  0  0  0  0  0  0  0
   -0.6132    1.3141   -0.0915 C   0  0  0  0  0  0  0  0  0  0  0  0
   -1.1594    0.0411    0.5321 C   0  0  0  0  0  0  0  0  0  0  0  0
   -1.1803   -1.0232   -0.5303 C   0  0  0  0  0  0  0  0  0  0  0  0
   -0.0001   -1.7434   -0.3013 O   0  0  0  0  0  0  0  0  0  0  0  0
    0.7191   -1.0386    0.6334 C   0  0  0  0  0  0  0  0  0  0  0  0
    1.6168   -0.0581   -0.1022 C   0  0  0  0  0  0  0  0  0  0  0  0
   -0.1987   -0.3845    1.4574 O   0  0  0  0  0  0  0  0  0  0  0  0
   -0.8220    2.1364    0.6270 H   0  0  0  0  0  0  0  0  0  0  0  0
   -1.1251    1.4934   -1.0651 H   0  0  0  0  0  0  0  0  0  0  0  0
   -2.1268    0.2418    0.9880 H   0  0  0  0  0  0  0  0  0  0  0  0
   -1.1784   -0.6135   -1.5618 H   0  0  0  0  0  0  0  0  0  0  0  0
   -2.0147   -1.7371   -0.3664 H   0  0  0  0  0  0  0  0  0  0  0  0
    1.3493   -1.6668    1.2855 H   0  0  0  0  0  0  0  0  0  0  0  0
    1.8028   -0.4339   -1.1414 H   0  0  0  0  0  0  0  0  0  0  0  0
    2.5857    0.0381    0.3792 H   0  0  0  0  0  0  0  0  0  0  0  0
  1  2  2  0
  2  3  1  0
  3  4  1  0
  4  5  1  0
  5  6  1  0
  6  7  1  0
  7  8  1  0
  7  9  1  0
  8  2  1  0
  9  4  1  0
  3 10  1  0
  3 11  1  0
  4 12  1  0
  5 13  1  0
  5 14  1  0
  7 15  1  0
  8 16  1  0
  8 17  1  0
M  END
