
     RDKit          3D

 21 21  0  0  0  0  0  0  0  0999 V2000
   -0.5731   -1.4888    1.5412 O   0  0  0  0  0  0  0  0  0  0  0  0
   -0.3831   -1.2780    0.3340 C   0  0  0  0  0  0  0  0  0  0  0  0
   -1.6705   -0.8631   -0.2849 C   0  0  0  0  0  0  0  0  0  0  0  0
   -1.9759    0.5334    0.2123 C   0  0  0  0  0  0  0  0  0  0  0  0
   -0.9742    1.4448   -0.3912 C   0  0  0  0  0  0  0  0  0  0  0  0
    0.3306    1.6039   -0.2776 C   0  0  0  0  0  0  0  0  0  0  0  0
    1.3923    0.9060    0.5388 C   0  0  0  0  0  0  0  0  0  0  0  0
    1.8305   -0.2917   -0.2478 C   0  0  0  0  0  0  0  0  0  0  0  0
    1.0286   -1.5192   -0.0077 C   0  0  0  0  0  0  0  0  0  0  0  0
   -1.4766   -0.7691   -1.3789 H   0  0  0  0  0  0  0  0  0  0  0  0
   -2.4825   -1.5754   -0.1242 H   0  0  0  0  0  0  0  0  0  0  0  0
   -1.7973    0.5061    1.3224 H   0  0  0  0  0  0  0  0  0  0  0  0
   -3.0040    0.8496    0.0220 H   0  0  0  0  0  0  0  0  0  0  0  0
   -1.4304    2.1341   -1.0828 H   0  0  0  0  0  0  0  0  0  0  0  0
    0.7614    2.4015   -0.8921 H   0  0  0  0  0  0  0  0  0  0  0  0
    2.2058    1.6212    0.7262 H   0  0  0  0  0  0  0  0  0  0  0  0
    0.9427    0.5906    1.5074 H   0  0  0  0  0  0  0  0  0  0  0  0
    1.8438   -0.0278   -1.3358 H   0  0  0  0  0  0  0  0  0  0  0  0
    2.8880   -0.4989    0.0254 H   0  0  0  0  0  0  0  0  0  0  0  0
    1.5107   -2.1623    0.7528 H   0  0  0  0  0  0  0  0  0  0  0  0
    1.0332   -2.1170   -0.9595 H   0  0  0  0  0  0  0  0  0  0  0  0
  1  2  2  0
  2  3  1  0
  3  4  1  0
  4  5  1  0
  5  6  2  3
  6  7  1  0
  7  8  1  0
  8  9  1  0
  9  2  1  0
  3 10  1  0
  3 11  1  0
  4 12  1  0
  4 13  1  0
  5 14  1  0
  6 15  1  0
  7 16  1  0
  7 17  1  0
  8 18  1  0
  8 19  1  0
  9 20  1  0
  9 21  1  0
M  END
