
     RDKit          3D

 15 16  0  0  0  0  0  0  0  0999 V2000
    2.0305    1.5352    0.6009 O   0  0  0  0  0  0  0  0  0  0  0  0
    0.8966    1.0320    0.3911 C   0  0  0  0  0  0  0  0  0  0  0  0
   -0.2869    1.7258    0.6592 O   0  0  0  0  0  0  0  0  0  0  0  0
   -1.3261    1.1712   -0.1611 C   0  0  0  0  0  0  0  0  0  0  0  0
   -0.8953   -0.2643   -0.3561 C   0  0  0  0  0  0  0  0  0  0  0  0
   -1.0528   -0.9466    0.8711 O   0  0  0  0  0  0  0  0  0  0  0  0
    0.2790   -1.3799    0.8264 C   0  0  0  0  0  0  0  0  0  0  0  0
    0.5854   -0.2949   -0.1415 C   0  0  0  0  0  0  0  0  0  0  0  0
    1.3620   -0.6305   -1.2389 O   0  0  0  0  0  0  0  0  0  0  0  0
   -1.4277    1.7073   -1.1131 H   0  0  0  0  0  0  0  0  0  0  0  0
   -2.2602    1.2124    0.4285 H   0  0  0  0  0  0  0  0  0  0  0  0
   -1.2973   -0.7794   -1.2257 H   0  0  0  0  0  0  0  0  0  0  0  0
    0.7881   -1.3391    1.7964 H   0  0  0  0  0  0  0  0  0  0  0  0
    0.2979   -2.3736    0.3171 H   0  0  0  0  0  0  0  0  0  0  0  0
    2.3067   -0.3756   -1.0098 H   0  0  0  0  0  0  0  0  0  0  0  0
  1  2  2  0
  2  3  1  0
  3  4  1  0
  4  5  1  0
  5  6  1  0
  6  7  1  0
  7  8  1  0
  8  9  1  0
  8  2  1  0
  8  5  1  0
  4 10  1  0
  4 11  1  0
  5 12  1  0
  7 13  1  0
  7 14  1  0
  9 15  1  0
M  END
