
     RDKit          3D

 14 15  0  0  0  0  0  0  0  0999 V2000
   -2.2691    0.9060   -1.0830 O   0  0  0  0  0  0  0  0  0  0  0  0
   -1.2692    0.4659   -0.5989 C   0  0  0  0  0  0  0  0  0  0  0  0
   -0.0971   -0.3678   -0.9358 C   0  0  0  0  0  0  0  0  0  0  0  0
    1.0185    0.6193   -0.7328 C   0  0  0  0  0  0  0  0  0  0  0  0
    0.6360    1.2335    0.3888 C   0  0  0  0  0  0  0  0  0  0  0  0
   -0.6299    0.5452    0.7367 C   0  0  0  0  0  0  0  0  0  0  0  0
   -0.2413   -0.8941    0.4817 C   0  0  0  0  0  0  0  0  0  0  0  0
    1.0204   -1.2459    0.9722 O   0  0  0  0  0  0  0  0  0  0  0  0
   -0.0856   -1.0180   -1.7500 H   0  0  0  0  0  0  0  0  0  0  0  0
    1.8979    0.7785   -1.3467 H   0  0  0  0  0  0  0  0  0  0  0  0
    1.0997    2.0334    0.9386 H   0  0  0  0  0  0  0  0  0  0  0  0
   -1.1810    0.8089    1.5886 H   0  0  0  0  0  0  0  0  0  0  0  0
   -1.0172   -1.6421    0.5867 H   0  0  0  0  0  0  0  0  0  0  0  0
    1.1180   -2.2230    0.7540 H   0  0  0  0  0  0  0  0  0  0  0  0
  1  2  2  0
  2  3  1  0
  3  4  1  0
  4  5  2  0
  5  6  1  0
  6  7  1  0
  7  8  1  0
  6  2  1  0
  7  3  1  0
  3  9  1  0
  4 10  1  0
  5 11  1  0
  6 12  1  0
  7 13  1  0
  8 14  1  0
M  END
