
     RDKit          3D

 19 20  0  0  0  0  0  0  0  0999 V2000
   -0.3366   -2.5660    0.4513 O   0  0  0  0  0  0  0  0  0  0  0  0
   -0.3086   -1.3543    0.3738 C   0  0  0  0  0  0  0  0  0  0  0  0
   -1.5765   -0.6086    0.2630 C   0  0  0  0  0  0  0  0  0  0  0  0
   -1.3977    0.8509   -0.0260 C   0  0  0  0  0  0  0  0  0  0  0  0
    0.0380    1.1767   -0.4648 C   0  0  0  0  0  0  0  0  0  0  0  0
    0.8790    0.7772    0.7601 C   0  0  0  0  0  0  0  0  0  0  0  0
    1.0214   -0.7083    0.3970 C   0  0  0  0  0  0  0  0  0  0  0  0
    1.4058   -0.4962   -1.0740 C   0  0  0  0  0  0  0  0  0  0  0  0
    0.4025    0.3472   -1.4861 O   0  0  0  0  0  0  0  0  0  0  0  0
   -2.1473   -0.7914    1.2198 H   0  0  0  0  0  0  0  0  0  0  0  0
   -2.2450   -1.0204   -0.5363 H   0  0  0  0  0  0  0  0  0  0  0  0
   -2.0570    1.2289   -0.8218 H   0  0  0  0  0  0  0  0  0  0  0  0
   -1.5781    1.4079    0.9172 H   0  0  0  0  0  0  0  0  0  0  0  0
    0.1025    2.2420   -0.6731 H   0  0  0  0  0  0  0  0  0  0  0  0
    0.3241    0.9167    1.6887 H   0  0  0  0  0  0  0  0  0  0  0  0
    1.8735    1.2090    0.7180 H   0  0  0  0  0  0  0  0  0  0  0  0
    1.7777   -1.2149    0.9658 H   0  0  0  0  0  0  0  0  0  0  0  0
    1.4391   -1.4374   -1.6307 H   0  0  0  0  0  0  0  0  0  0  0  0
    2.3832    0.0410   -1.0418 H   0  0  0  0  0  0  0  0  0  0  0  0
  1  2  2  0
  2  3  1  0
  3  4  1  0
  4  5  1  0
  5  6  1  0
  6  7  1  0
  7  8  1  0
  8  9  1  0
  7  2  1  0
  9  5  1  0
  3 10  1  0
  3 11  1  0
  4 12  1  0
  4 13  1  0
  5 14  1  0
  6 15  1  0
  6 16  1  0
  7 17  1  0
  8 18  1  0
  8 19  1  0
M  END
