
     RDKit          3D

 12 13  0  0  0  0  0  0  0  0999 V2000
   -0.1614   -2.0186    1.2362 O   0  0  0  0  0  0  0  0  0  0  0  0
   -0.1164   -1.0964    0.4478 C   0  0  0  0  0  0  0  0  0  0  0  0
    1.1014   -0.3228   -0.0011 C   0  0  0  0  0  0  0  0  0  0  0  0
    0.5025    1.0254   -0.3541 C   0  0  0  0  0  0  0  0  0  0  0  0
    1.0162    1.8952   -1.0027 O   0  0  0  0  0  0  0  0  0  0  0  0
   -0.8121    0.9700    0.2867 C   0  0  0  0  0  0  0  0  0  0  0  0
   -1.9869    0.5543   -0.0853 O   0  0  0  0  0  0  0  0  0  0  0  0
   -1.1687   -0.4295   -0.3176 C   0  0  0  0  0  0  0  0  0  0  0  0
    1.8627   -0.2533    0.7591 H   0  0  0  0  0  0  0  0  0  0  0  0
    1.4022   -0.7769   -0.9569 H   0  0  0  0  0  0  0  0  0  0  0  0
   -0.6962    0.9907    1.4149 H   0  0  0  0  0  0  0  0  0  0  0  0
   -0.9434   -0.5380   -1.4270 H   0  0  0  0  0  0  0  0  0  0  0  0
  1  2  2  0
  2  3  1  0
  3  4  1  0
  4  5  2  0
  4  6  1  0
  6  7  1  0
  7  8  1  0
  8  2  1  0
  8  6  1  0
  3  9  1  0
  3 10  1  0
  6 11  1  0
  8 12  1  0
M  END
