
     RDKit          3D

 17 18  0  0  0  0  0  0  0  0999 V2000
    1.8150   -2.2225    0.3340 O   0  0  0  0  0  0  0  0  0  0  0  0
    1.1655   -1.2297    0.1204 C   0  0  0  0  0  0  0  0  0  0  0  0
    1.2905    0.1475    0.7049 C   0  0  0  0  0  0  0  0  0  0  0  0
    0.7579    0.9985   -0.4223 C   0  0  0  0  0  0  0  0  0  0  0  0
   -0.5442    1.5908    0.0170 C   0  0  0  0  0  0  0  0  0  0  0  0
   -1.5460    0.6921    0.0937 C   0  0  0  0  0  0  0  0  0  0  0  0
   -1.2220   -0.7600    0.0003 C   0  0  0  0  0  0  0  0  0  0  0  0
   -0.0045   -1.0411   -0.8185 C   0  0  0  0  0  0  0  0  0  0  0  0
    0.4412    0.1336   -1.4678 O   0  0  0  0  0  0  0  0  0  0  0  0
    2.3213    0.3836    0.9904 H   0  0  0  0  0  0  0  0  0  0  0  0
    0.5926    0.1458    1.5878 H   0  0  0  0  0  0  0  0  0  0  0  0
    1.4703    1.7703   -0.7426 H   0  0  0  0  0  0  0  0  0  0  0  0
   -0.6891    2.6190    0.2516 H   0  0  0  0  0  0  0  0  0  0  0  0
   -2.5607    1.0299    0.2204 H   0  0  0  0  0  0  0  0  0  0  0  0
   -1.0535   -1.1174    1.0513 H   0  0  0  0  0  0  0  0  0  0  0  0
   -2.1248   -1.2745   -0.4006 H   0  0  0  0  0  0  0  0  0  0  0  0
   -0.1095   -1.8658   -1.5199 H   0  0  0  0  0  0  0  0  0  0  0  0
  1  2  2  0
  2  3  1  0
  3  4  1  0
  4  5  1  0
  5  6  2  0
  6  7  1  0
  7  8  1  0
  8  9  1  0
  8  2  1  0
  9  4  1  0
  3 10  1  0
  3 11  1  0
  4 12  1  0
  5 13  1  0
  6 14  1  0
  7 15  1  0
  7 16  1  0
  8 17  1  0
M  END
