
     RDKit          3D

 17 19  0  0  0  0  0  0  0  0999 V2000
    3.9936    0.0032   -0.1021 O   0  0  0  0  0  0  0  0  0  0  0  0
    2.8399   -0.3854   -0.1209 C   0  0  0  0  0  0  0  0  0  0  0  0
    2.0809   -1.3788    0.4543 O   0  0  0  0  0  0  0  0  0  0  0  0
    1.2231   -0.2707    0.7598 C   0  0  0  0  0  0  0  0  0  0  0  0
    1.5655   -0.0292   -0.7675 C   0  0  0  0  0  0  0  0  0  0  0  0
    0.3703    0.4666   -0.0988 C   0  0  0  0  0  0  0  0  0  0  0  0
   -1.0075   -0.1073   -0.3991 C   0  0  0  0  0  0  0  0  0  0  0  0
   -1.9691   -0.3560    0.6869 C   0  0  0  0  0  0  0  0  0  0  0  0
   -2.2187    0.7493   -0.3176 C   0  0  0  0  0  0  0  0  0  0  0  0
    1.8390    0.3747    1.4672 H   0  0  0  0  0  0  0  0  0  0  0  0
    1.3054   -0.9044   -1.4465 H   0  0  0  0  0  0  0  0  0  0  0  0
    0.3146    1.5947   -0.0407 H   0  0  0  0  0  0  0  0  0  0  0  0
   -0.9876   -0.7758   -1.3086 H   0  0  0  0  0  0  0  0  0  0  0  0
   -1.6474   -0.0855    1.7043 H   0  0  0  0  0  0  0  0  0  0  0  0
   -2.6127   -1.2648    0.5823 H   0  0  0  0  0  0  0  0  0  0  0  0
   -3.0600    0.5712   -1.0363 H   0  0  0  0  0  0  0  0  0  0  0  0
   -2.0293    1.7984   -0.0166 H   0  0  0  0  0  0  0  0  0  0  0  0
  1  2  2  0
  2  3  1  0
  3  4  1  0
  4  5  1  0
  5  6  1  0
  6  7  1  0
  7  8  1  0
  8  9  1  0
  5  2  1  0
  9  7  1  0
  6  4  1  0
  4 10  1  0
  5 11  1  0
  6 12  1  0
  7 13  1  0
  8 14  1  0
  8 15  1  0
  9 16  1  0
  9 17  1  0
M  END
