
     RDKit          3D

 17 18  0  0  0  0  0  0  0  0999 V2000
   -0.0142   -0.3610   -2.5922 O   0  0  0  0  0  0  0  0  0  0  0  0
   -0.4633   -0.2103   -1.4193 C   0  0  0  0  0  0  0  0  0  0  0  0
   -1.8137   -0.3803   -1.1295 O   0  0  0  0  0  0  0  0  0  0  0  0
   -2.0922    0.0681    0.1921 C   0  0  0  0  0  0  0  0  0  0  0  0
   -0.8531    0.8781    0.5976 C   0  0  0  0  0  0  0  0  0  0  0  0
    0.1988    0.1394   -0.1770 C   0  0  0  0  0  0  0  0  0  0  0  0
    0.8175   -1.0232    0.6038 C   0  0  0  0  0  0  0  0  0  0  0  0
    1.6066    0.1769    0.0857 C   0  0  0  0  0  0  0  0  0  0  0  0
    2.5111   -0.1569   -0.8919 O   0  0  0  0  0  0  0  0  0  0  0  0
   -2.0571   -0.8455    0.8395 H   0  0  0  0  0  0  0  0  0  0  0  0
   -3.0109    0.6389    0.2771 H   0  0  0  0  0  0  0  0  0  0  0  0
   -0.9820    1.9113    0.2078 H   0  0  0  0  0  0  0  0  0  0  0  0
   -0.6854    0.8580    1.6798 H   0  0  0  0  0  0  0  0  0  0  0  0
    0.9101   -1.9886    0.1049 H   0  0  0  0  0  0  0  0  0  0  0  0
    0.6528   -1.0688    1.6904 H   0  0  0  0  0  0  0  0  0  0  0  0
    1.9902    0.8755    0.8583 H   0  0  0  0  0  0  0  0  0  0  0  0
    3.2847    0.4884   -0.9272 H   0  0  0  0  0  0  0  0  0  0  0  0
  1  2  2  0
  2  3  1  0
  3  4  1  0
  4  5  1  0
  5  6  1  0
  6  7  1  0
  7  8  1  0
  8  9  1  0
  6  2  1  0
  8  6  1  0
  4 10  1  0
  4 11  1  0
  5 12  1  0
  5 13  1  0
  7 14  1  0
  7 15  1  0
  8 16  1  0
  9 17  1  0
M  END
