
     RDKit          3D

 17 19  0  0  0  0  0  0  0  0999 V2000
    1.7033    2.2085   -0.7292 O   0  0  0  0  0  0  0  0  0  0  0  0
    1.4122    1.0673   -0.3007 C   0  0  0  0  0  0  0  0  0  0  0  0
    2.1289   -0.2000   -0.4857 C   0  0  0  0  0  0  0  0  0  0  0  0
    1.4224   -1.1895    0.0301 C   0  0  0  0  0  0  0  0  0  0  0  0
    0.1685   -0.7100    0.6126 C   0  0  0  0  0  0  0  0  0  0  0  0
   -1.0199   -0.6732   -0.3160 C   0  0  0  0  0  0  0  0  0  0  0  0
   -2.2367   -0.0275    0.2328 C   0  0  0  0  0  0  0  0  0  0  0  0
   -1.0731    0.7901   -0.2371 C   0  0  0  0  0  0  0  0  0  0  0  0
    0.2104    0.7991    0.5203 C   0  0  0  0  0  0  0  0  0  0  0  0
    3.0973   -0.2465   -0.9838 H   0  0  0  0  0  0  0  0  0  0  0  0
    1.7484   -2.2110    0.0122 H   0  0  0  0  0  0  0  0  0  0  0  0
   -0.1131   -1.0840    1.5980 H   0  0  0  0  0  0  0  0  0  0  0  0
   -1.0099   -1.2353   -1.2547 H   0  0  0  0  0  0  0  0  0  0  0  0
   -2.3932   -0.0082    1.3344 H   0  0  0  0  0  0  0  0  0  0  0  0
   -3.1095   -0.0041   -0.4394 H   0  0  0  0  0  0  0  0  0  0  0  0
   -1.1418    1.4449   -1.1098 H   0  0  0  0  0  0  0  0  0  0  0  0
    0.2058    1.2792    1.5160 H   0  0  0  0  0  0  0  0  0  0  0  0
  1  2  2  0
  2  3  1  0
  3  4  2  0
  4  5  1  0
  5  6  1  0
  6  7  1  0
  7  8  1  0
  8  9  1  0
  9  2  1  0
  9  5  1  0
  8  6  1  0
  3 10  1  0
  4 11  1  0
  5 12  1  0
  6 13  1  0
  7 14  1  0
  7 15  1  0
  8 16  1  0
  9 17  1  0
M  END
