
     RDKit          3D

 15 17  0  0  0  0  0  0  0  0999 V2000
   -1.4478   -1.4774   -1.8636 O   0  0  0  0  0  0  0  0  0  0  0  0
   -0.9930   -0.9773   -0.7997 C   0  0  0  0  0  0  0  0  0  0  0  0
   -0.1763   -1.7029    0.0576 O   0  0  0  0  0  0  0  0  0  0  0  0
    0.6167   -0.7164    0.6937 C   0  0  0  0  0  0  0  0  0  0  0  0
    1.4561   -0.0767   -0.3734 C   0  0  0  0  0  0  0  0  0  0  0  0
    1.1221    1.2549   -0.3614 O   0  0  0  0  0  0  0  0  0  0  0  0
   -0.1984    1.3549   -0.0002 C   0  0  0  0  0  0  0  0  0  0  0  0
   -1.2224    0.3702   -0.2981 C   0  0  0  0  0  0  0  0  0  0  0  0
   -0.3936    0.3175    1.0128 C   0  0  0  0  0  0  0  0  0  0  0  0
    1.1857   -1.1064    1.5459 H   0  0  0  0  0  0  0  0  0  0  0  0
    2.5511   -0.2379   -0.2237 H   0  0  0  0  0  0  0  0  0  0  0  0
    1.2306   -0.4638   -1.3989 H   0  0  0  0  0  0  0  0  0  0  0  0
   -0.5399    2.3744    0.2657 H   0  0  0  0  0  0  0  0  0  0  0  0
   -2.2804    0.6773   -0.2052 H   0  0  0  0  0  0  0  0  0  0  0  0
   -0.9104    0.4095    1.9485 H   0  0  0  0  0  0  0  0  0  0  0  0
  1  2  2  0
  2  3  1  0
  3  4  1  0
  4  5  1  0
  5  6  1  0
  6  7  1  0
  7  8  1  0
  8  9  1  0
  8  2  1  0
  9  4  1  0
  9  7  1  0
  4 10  1  0
  5 11  1  0
  5 12  1  0
  7 13  1  0
  8 14  1  0
  9 15  1  0
M  END
