
     RDKit          3D

 15 15  0  0  0  0  0  0  0  0999 V2000
   -1.4002    2.1833   -0.7333 O   0  0  0  0  0  0  0  0  0  0  0  0
   -0.8115    1.1710   -0.2169 C   0  0  0  0  0  0  0  0  0  0  0  0
    0.6085    1.3746    0.0393 C   0  0  0  0  0  0  0  0  0  0  0  0
    1.5588    0.4544    0.0456 C   0  0  0  0  0  0  0  0  0  0  0  0
    1.4403   -1.0135   -0.2027 C   0  0  0  0  0  0  0  0  0  0  0  0
    0.3803   -1.5040    0.5527 O   0  0  0  0  0  0  0  0  0  0  0  0
   -0.9517   -1.1954    0.4680 C   0  0  0  0  0  0  0  0  0  0  0  0
   -1.7601   -2.1157    0.8433 O   0  0  0  0  0  0  0  0  0  0  0  0
   -1.6474    0.0020    0.0247 C   0  0  0  0  0  0  0  0  0  0  0  0
    0.9223    2.4072    0.2503 H   0  0  0  0  0  0  0  0  0  0  0  0
    2.5518    0.8559    0.2652 H   0  0  0  0  0  0  0  0  0  0  0  0
    1.3491   -1.1964   -1.2936 H   0  0  0  0  0  0  0  0  0  0  0  0
    2.4177   -1.4621    0.1159 H   0  0  0  0  0  0  0  0  0  0  0  0
   -2.2004   -0.2348   -0.9190 H   0  0  0  0  0  0  0  0  0  0  0  0
   -2.4575    0.2737    0.7604 H   0  0  0  0  0  0  0  0  0  0  0  0
  1  2  2  0
  2  3  1  0
  3  4  2  0
  4  5  1  0
  5  6  1  0
  6  7  1  0
  7  8  2  0
  7  9  1  0
  9  2  1  0
  3 10  1  0
  4 11  1  0
  5 12  1  0
  5 13  1  0
  9 14  1  0
  9 15  1  0
M  END
