
     RDKit          3D

 17 17  0  0  0  0  0  0  0  0999 V2000
   -0.4612   -1.6741    1.8835 O   0  0  0  0  0  0  0  0  0  0  0  0
    0.1582   -0.8355    1.1956 C   0  0  0  0  0  0  0  0  0  0  0  0
    1.5275   -0.6354    1.2809 O   0  0  0  0  0  0  0  0  0  0  0  0
    2.1623    0.3912    0.5163 C   0  0  0  0  0  0  0  0  0  0  0  0
    1.5726    0.2896   -0.8532 C   0  0  0  0  0  0  0  0  0  0  0  0
    0.2709    0.1093   -0.9895 C   0  0  0  0  0  0  0  0  0  0  0  0
   -0.5747    0.0119    0.2228 C   0  0  0  0  0  0  0  0  0  0  0  0
   -1.9581   -0.4918   -0.0662 C   0  0  0  0  0  0  0  0  0  0  0  0
   -2.5248    0.4031   -0.9949 O   0  0  0  0  0  0  0  0  0  0  0  0
    3.2429    0.2689    0.5250 H   0  0  0  0  0  0  0  0  0  0  0  0
    1.8185    1.3721    0.9293 H   0  0  0  0  0  0  0  0  0  0  0  0
    2.2220    0.3654   -1.7190 H   0  0  0  0  0  0  0  0  0  0  0  0
   -0.1980    0.0305   -1.9549 H   0  0  0  0  0  0  0  0  0  0  0  0
   -0.5902    1.0415    0.6709 H   0  0  0  0  0  0  0  0  0  0  0  0
   -2.6189   -0.4825    0.8115 H   0  0  0  0  0  0  0  0  0  0  0  0
   -1.9042   -1.4811   -0.5570 H   0  0  0  0  0  0  0  0  0  0  0  0
   -2.1445    1.3169   -0.9011 H   0  0  0  0  0  0  0  0  0  0  0  0
  1  2  2  0
  2  3  1  0
  3  4  1  0
  4  5  1  0
  5  6  2  0
  6  7  1  0
  7  8  1  0
  8  9  1  0
  7  2  1  0
  4 10  1  0
  4 11  1  0
  5 12  1  0
  6 13  1  0
  7 14  1  0
  8 15  1  0
  8 16  1  0
  9 17  1  0
M  END
