
     RDKit          3D

 17 18  0  0  0  0  0  0  0  0999 V2000
   -0.0351    2.4541   -0.7469 O   0  0  0  0  0  0  0  0  0  0  0  0
    0.3203    1.3140   -0.5169 C   0  0  0  0  0  0  0  0  0  0  0  0
    1.5894    0.5108   -0.5733 C   0  0  0  0  0  0  0  0  0  0  0  0
    0.8796   -0.6583    0.1270 C   0  0  0  0  0  0  0  0  0  0  0  0
    1.3962   -0.8121    1.3969 O   0  0  0  0  0  0  0  0  0  0  0  0
   -0.3536    0.1045   -0.0476 C   0  0  0  0  0  0  0  0  0  0  0  0
   -1.4802   -0.4374   -0.8235 C   0  0  0  0  0  0  0  0  0  0  0  0
   -2.3569    0.2439    0.0524 O   0  0  0  0  0  0  0  0  0  0  0  0
   -1.3430    0.2063    1.0351 C   0  0  0  0  0  0  0  0  0  0  0  0
    1.8950    0.2090   -1.5772 H   0  0  0  0  0  0  0  0  0  0  0  0
    2.3510    1.0114    0.0402 H   0  0  0  0  0  0  0  0  0  0  0  0
    0.8912   -1.5962   -0.4672 H   0  0  0  0  0  0  0  0  0  0  0  0
    2.1807   -1.4255    1.3221 H   0  0  0  0  0  0  0  0  0  0  0  0
   -1.5617   -0.1332   -1.8695 H   0  0  0  0  0  0  0  0  0  0  0  0
   -1.6304   -1.5396   -0.6248 H   0  0  0  0  0  0  0  0  0  0  0  0
   -1.4020   -0.6514    1.7182 H   0  0  0  0  0  0  0  0  0  0  0  0
   -1.3406    1.1997    1.5550 H   0  0  0  0  0  0  0  0  0  0  0  0
  1  2  2  0
  2  3  1  0
  3  4  1  0
  4  5  1  0
  4  6  1  0
  6  7  1  0
  7  8  1  0
  8  9  1  0
  6  2  1  0
  9  6  1  0
  3 10  1  0
  3 11  1  0
  4 12  1  0
  5 13  1  0
  7 14  1  0
  7 15  1  0
  9 16  1  0
  9 17  1  0
M  END
