
     RDKit          3D

 17 19  0  0  0  0  0  0  0  0999 V2000
    1.5562    1.9943   -1.2926 O   0  0  0  0  0  0  0  0  0  0  0  0
    1.0764    1.1072   -0.6297 C   0  0  0  0  0  0  0  0  0  0  0  0
    0.5956   -0.3201   -0.7868 C   0  0  0  0  0  0  0  0  0  0  0  0
    1.5966   -1.0023    0.1193 C   0  0  0  0  0  0  0  0  0  0  0  0
    1.5771   -0.0779    1.1969 O   0  0  0  0  0  0  0  0  0  0  0  0
    0.6447    0.8529    0.7971 C   0  0  0  0  0  0  0  0  0  0  0  0
   -0.4571    0.0692    0.1657 C   0  0  0  0  0  0  0  0  0  0  0  0
   -1.4595   -0.7024    0.7948 C   0  0  0  0  0  0  0  0  0  0  0  0
   -1.7858    0.5316   -0.1157 C   0  0  0  0  0  0  0  0  0  0  0  0
    0.4143   -0.6806   -1.7575 H   0  0  0  0  0  0  0  0  0  0  0  0
    1.2752   -1.9949    0.4358 H   0  0  0  0  0  0  0  0  0  0  0  0
    2.5752   -0.9665   -0.3644 H   0  0  0  0  0  0  0  0  0  0  0  0
    0.4335    1.7036    1.3980 H   0  0  0  0  0  0  0  0  0  0  0  0
   -1.7055   -0.5292    1.8805 H   0  0  0  0  0  0  0  0  0  0  0  0
   -1.8353   -1.6733    0.4406 H   0  0  0  0  0  0  0  0  0  0  0  0
   -2.1584    1.4287    0.4118 H   0  0  0  0  0  0  0  0  0  0  0  0
   -2.3431    0.2598   -1.0412 H   0  0  0  0  0  0  0  0  0  0  0  0
  1  2  2  0
  2  3  1  0
  3  4  1  0
  4  5  1  0
  5  6  1  0
  6  7  1  0
  7  8  1  0
  8  9  1  0
  6  2  1  0
  9  7  1  0
  7  3  1  0
  3 10  1  0
  4 11  1  0
  4 12  1  0
  6 13  1  0
  8 14  1  0
  8 15  1  0
  9 16  1  0
  9 17  1  0
M  END
