
     RDKit          3D

 17 18  0  0  0  0  0  0  0  0999 V2000
   -2.4552    1.5373    0.1608 O   0  0  0  0  0  0  0  0  0  0  0  0
   -1.5328    0.7557   -0.0630 C   0  0  0  0  0  0  0  0  0  0  0  0
   -1.3631   -0.7050    0.1618 C   0  0  0  0  0  0  0  0  0  0  0  0
    0.0061   -0.6262   -0.4323 C   0  0  0  0  0  0  0  0  0  0  0  0
    0.2716   -1.3913   -1.5297 O   0  0  0  0  0  0  0  0  0  0  0  0
    1.1119   -0.7697    0.6018 C   0  0  0  0  0  0  0  0  0  0  0  0
    1.5484    0.6166    0.8887 C   0  0  0  0  0  0  0  0  0  0  0  0
    0.8457    1.5058    0.2114 C   0  0  0  0  0  0  0  0  0  0  0  0
   -0.1791    0.8459   -0.6412 C   0  0  0  0  0  0  0  0  0  0  0  0
   -2.0757   -1.3384   -0.3726 H   0  0  0  0  0  0  0  0  0  0  0  0
   -1.3295   -0.8900    1.2667 H   0  0  0  0  0  0  0  0  0  0  0  0
   -0.5307   -1.5212   -2.0991 H   0  0  0  0  0  0  0  0  0  0  0  0
    1.9325   -1.4250    0.2529 H   0  0  0  0  0  0  0  0  0  0  0  0
    0.6619   -1.2645    1.4780 H   0  0  0  0  0  0  0  0  0  0  0  0
    2.3426    0.8718    1.5672 H   0  0  0  0  0  0  0  0  0  0  0  0
    0.9508    2.5938    0.2284 H   0  0  0  0  0  0  0  0  0  0  0  0
   -0.2056    1.2044   -1.6799 H   0  0  0  0  0  0  0  0  0  0  0  0
  1  2  2  0
  2  3  1  0
  3  4  1  0
  4  5  1  0
  4  6  1  0
  6  7  1  0
  7  8  2  0
  8  9  1  0
  9  2  1  0
  9  4  1  0
  3 10  1  0
  3 11  1  0
  5 12  1  0
  6 13  1  0
  6 14  1  0
  7 15  1  0
  8 16  1  0
  9 17  1  0
M  END
