
     RDKit          3D

 13 13  0  0  0  0  0  0  0  0999 V2000
   -0.5690    2.1958   -0.6317 O   0  0  0  0  0  0  0  0  0  0  0  0
   -0.4809    1.0526   -0.2594 C   0  0  0  0  0  0  0  0  0  0  0  0
   -1.4572   -0.0544   -0.4139 C   0  0  0  0  0  0  0  0  0  0  0  0
   -0.5973   -1.0907   -0.8015 O   0  0  0  0  0  0  0  0  0  0  0  0
    0.4250   -1.0446    0.1549 C   0  0  0  0  0  0  0  0  0  0  0  0
    0.6449    0.4150    0.4706 C   0  0  0  0  0  0  0  0  0  0  0  0
    1.8792    0.8831    0.1007 O   0  0  0  0  0  0  0  0  0  0  0  0
   -1.8013   -0.3181    0.6159 H   0  0  0  0  0  0  0  0  0  0  0  0
   -2.2496    0.1399   -1.1151 H   0  0  0  0  0  0  0  0  0  0  0  0
    0.0304   -1.5585    1.0563 H   0  0  0  0  0  0  0  0  0  0  0  0
    1.3302   -1.5550   -0.1898 H   0  0  0  0  0  0  0  0  0  0  0  0
    0.4927    0.5864    1.5763 H   0  0  0  0  0  0  0  0  0  0  0  0
    2.3531    0.3484   -0.5632 H   0  0  0  0  0  0  0  0  0  0  0  0
  1  2  2  0
  2  3  1  0
  3  4  1  0
  4  5  1  0
  5  6  1  0
  6  7  1  0
  6  2  1  0
  3  8  1  0
  3  9  1  0
  5 10  1  0
  5 11  1  0
  6 12  1  0
  7 13  1  0
M  END
