
     RDKit          3D

 16 16  0  0  0  0  0  0  0  0999 V2000
   -0.0886   -0.3260   -1.8284 O   0  0  0  0  0  0  0  0  0  0  0  0
   -0.3675   -0.2933   -0.6553 C   0  0  0  0  0  0  0  0  0  0  0  0
   -1.7537   -0.3527   -0.1323 C   0  0  0  0  0  0  0  0  0  0  0  0
   -1.6104    0.4439    1.1356 C   0  0  0  0  0  0  0  0  0  0  0  0
   -0.2785    0.5875    1.4108 O   0  0  0  0  0  0  0  0  0  0  0  0
    0.4583   -0.1937    0.5662 C   0  0  0  0  0  0  0  0  0  0  0  0
    1.8053    0.4295    0.3107 C   0  0  0  0  0  0  0  0  0  0  0  0
    2.5979   -0.3034   -0.5303 O   0  0  0  0  0  0  0  0  0  0  0  0
   -1.9463   -1.4069    0.1515 H   0  0  0  0  0  0  0  0  0  0  0  0
   -2.4994    0.0645   -0.8254 H   0  0  0  0  0  0  0  0  0  0  0  0
   -2.1089   -0.0423    2.0100 H   0  0  0  0  0  0  0  0  0  0  0  0
   -2.0769    1.4611    0.9905 H   0  0  0  0  0  0  0  0  0  0  0  0
    0.6508   -1.2241    0.9480 H   0  0  0  0  0  0  0  0  0  0  0  0
    2.2996    0.5288    1.3151 H   0  0  0  0  0  0  0  0  0  0  0  0
    1.6283    1.4673   -0.0412 H   0  0  0  0  0  0  0  0  0  0  0  0
    3.2900   -0.8403   -0.0663 H   0  0  0  0  0  0  0  0  0  0  0  0
  1  2  2  0
  2  3  1  0
  3  4  1  0
  4  5  1  0
  5  6  1  0
  6  7  1  0
  7  8  1  0
  6  2  1  0
  3  9  1  0
  3 10  1  0
  4 11  1  0
  4 12  1  0
  6 13  1  0
  7 14  1  0
  7 15  1  0
  8 16  1  0
M  END
