
     RDKit          3D

 14 15  0  0  0  0  0  0  0  0999 V2000
    3.2314   -0.7935    0.5647 O   0  0  0  0  0  0  0  0  0  0  0  0
    2.0836   -0.2799    0.5083 C   0  0  0  0  0  0  0  0  0  0  0  0
    1.8158    1.0489    0.2699 O   0  0  0  0  0  0  0  0  0  0  0  0
    0.5448    1.1278   -0.3550 C   0  0  0  0  0  0  0  0  0  0  0  0
   -0.1140   -0.1388    0.1382 C   0  0  0  0  0  0  0  0  0  0  0  0
   -1.4966   -0.1017    0.5872 C   0  0  0  0  0  0  0  0  0  0  0  0
   -1.1502   -0.8277   -0.6812 C   0  0  0  0  0  0  0  0  0  0  0  0
    0.8818   -0.9541    0.6749 O   0  0  0  0  0  0  0  0  0  0  0  0
   -0.0350    2.0127   -0.0372 H   0  0  0  0  0  0  0  0  0  0  0  0
    0.6703    1.0394   -1.4336 H   0  0  0  0  0  0  0  0  0  0  0  0
   -1.7925   -0.6581    1.4865 H   0  0  0  0  0  0  0  0  0  0  0  0
   -2.0215    0.8916    0.5106 H   0  0  0  0  0  0  0  0  0  0  0  0
   -1.3925   -0.4178   -1.6591 H   0  0  0  0  0  0  0  0  0  0  0  0
   -1.2253   -1.9489   -0.5741 H   0  0  0  0  0  0  0  0  0  0  0  0
  1  2  2  0
  2  3  1  0
  3  4  1  0
  4  5  1  0
  5  6  1  0
  6  7  1  0
  5  8  1  0
  8  2  1  0
  7  5  1  0
  4  9  1  0
  4 10  1  0
  6 11  1  0
  6 12  1  0
  7 13  1  0
  7 14  1  0
M  END
