
     RDKit          3D

 15 17  0  0  0  0  0  0  0  0999 V2000
   -1.9897    1.5845   -0.8899 O   0  0  0  0  0  0  0  0  0  0  0  0
   -1.5073    0.4487   -0.8684 C   0  0  0  0  0  0  0  0  0  0  0  0
   -0.6953   -0.3997   -1.6020 O   0  0  0  0  0  0  0  0  0  0  0  0
   -0.0504   -0.5478   -0.3486 C   0  0  0  0  0  0  0  0  0  0  0  0
    0.5282    0.8430    0.0118 C   0  0  0  0  0  0  0  0  0  0  0  0
    2.0270    0.7766    0.2320 C   0  0  0  0  0  0  0  0  0  0  0  0
    1.4393    1.3470   -0.8868 O   0  0  0  0  0  0  0  0  0  0  0  0
   -0.4538   -1.2933    0.7905 C   0  0  0  0  0  0  0  0  0  0  0  0
   -1.5703   -0.6985    0.0667 C   0  0  0  0  0  0  0  0  0  0  0  0
   -0.0356    1.4723    0.6956 H   0  0  0  0  0  0  0  0  0  0  0  0
    2.4329    1.4243    1.0370 H   0  0  0  0  0  0  0  0  0  0  0  0
    2.5792   -0.1394    0.0363 H   0  0  0  0  0  0  0  0  0  0  0  0
   -0.3234   -0.9073    1.8406 H   0  0  0  0  0  0  0  0  0  0  0  0
   -0.2409   -2.4044    0.7891 H   0  0  0  0  0  0  0  0  0  0  0  0
   -2.1399   -1.5061   -0.4970 H   0  0  0  0  0  0  0  0  0  0  0  0
  1  2  2  0
  2  3  1  0
  3  4  1  0
  4  5  1  0
  5  6  1  0
  6  7  1  0
  4  8  1  0
  8  9  1  0
  9  2  1  0
  9  4  1  0
  7  5  1  0
  5 10  1  0
  6 11  1  0
  6 12  1  0
  8 13  1  0
  8 14  1  0
  9 15  1  0
M  END
