
     RDKit          3D

 19 20  0  0  0  0  0  0  0  0999 V2000
   -0.4375    2.6371    0.7036 O   0  0  0  0  0  0  0  0  0  0  0  0
   -0.6802    1.4988    0.3585 C   0  0  0  0  0  0  0  0  0  0  0  0
   -1.5110    0.3620    0.8412 C   0  0  0  0  0  0  0  0  0  0  0  0
   -0.7519   -0.5891   -0.0542 C   0  0  0  0  0  0  0  0  0  0  0  0
   -1.5290   -1.4604   -0.7923 O   0  0  0  0  0  0  0  0  0  0  0  0
    0.4523   -1.2336    0.5255 C   0  0  0  0  0  0  0  0  0  0  0  0
    1.6065   -0.2780    0.4014 C   0  0  0  0  0  0  0  0  0  0  0  0
    1.2494    0.5448   -0.7985 C   0  0  0  0  0  0  0  0  0  0  0  0
   -0.2486    0.6238   -0.7758 C   0  0  0  0  0  0  0  0  0  0  0  0
   -1.4892    0.1593    1.9090 H   0  0  0  0  0  0  0  0  0  0  0  0
   -2.5535    0.4979    0.4406 H   0  0  0  0  0  0  0  0  0  0  0  0
   -2.0049   -1.0385   -1.5390 H   0  0  0  0  0  0  0  0  0  0  0  0
    0.3264   -1.6492    1.5371 H   0  0  0  0  0  0  0  0  0  0  0  0
    0.7068   -2.1186   -0.1287 H   0  0  0  0  0  0  0  0  0  0  0  0
    1.7015    0.3059    1.3203 H   0  0  0  0  0  0  0  0  0  0  0  0
    2.5738   -0.7935    0.1745 H   0  0  0  0  0  0  0  0  0  0  0  0
    1.6507    0.1454   -1.7474 H   0  0  0  0  0  0  0  0  0  0  0  0
    1.6853    1.5596   -0.6431 H   0  0  0  0  0  0  0  0  0  0  0  0
   -0.7471    0.8264   -1.7326 H   0  0  0  0  0  0  0  0  0  0  0  0
  1  2  2  0
  2  3  1  0
  3  4  1  0
  4  5  1  0
  4  6  1  0
  6  7  1  0
  7  8  1  0
  8  9  1  0
  9  2  1  0
  9  4  1  0
  3 10  1  0
  3 11  1  0
  5 12  1  0
  6 13  1  0
  6 14  1  0
  7 15  1  0
  7 16  1  0
  8 17  1  0
  8 18  1  0
  9 19  1  0
M  END
