
     RDKit          3D

 17 18  0  0  0  0  0  0  0  0999 V2000
   -1.3896    1.0790   -1.9377 O   0  0  0  0  0  0  0  0  0  0  0  0
   -1.0580    0.5362   -0.8973 C   0  0  0  0  0  0  0  0  0  0  0  0
   -1.6618   -0.3003    0.1807 C   0  0  0  0  0  0  0  0  0  0  0  0
   -1.5177   -1.6514   -0.1668 O   0  0  0  0  0  0  0  0  0  0  0  0
   -0.5221    0.1913    1.0865 C   0  0  0  0  0  0  0  0  0  0  0  0
    0.2004    0.4585   -0.1779 C   0  0  0  0  0  0  0  0  0  0  0  0
    1.3570    1.2871   -0.3534 C   0  0  0  0  0  0  0  0  0  0  0  0
    1.3970   -0.2353   -0.6274 C   0  0  0  0  0  0  0  0  0  0  0  0
    2.2145   -0.9656    0.2037 O   0  0  0  0  0  0  0  0  0  0  0  0
   -2.6632   -0.0052    0.5109 H   0  0  0  0  0  0  0  0  0  0  0  0
   -1.9429   -2.2021    0.5338 H   0  0  0  0  0  0  0  0  0  0  0  0
   -0.8484    1.1059    1.6264 H   0  0  0  0  0  0  0  0  0  0  0  0
   -0.1771   -0.6116    1.7373 H   0  0  0  0  0  0  0  0  0  0  0  0
    1.9306    1.6199    0.5583 H   0  0  0  0  0  0  0  0  0  0  0  0
    1.5633    1.9176   -1.2218 H   0  0  0  0  0  0  0  0  0  0  0  0
    1.4244   -0.5314   -1.7138 H   0  0  0  0  0  0  0  0  0  0  0  0
    1.6937   -1.6926    0.6586 H   0  0  0  0  0  0  0  0  0  0  0  0
  1  2  2  0
  2  3  1  0
  3  4  1  0
  3  5  1  0
  5  6  1  0
  6  7  1  0
  7  8  1  0
  8  9  1  0
  6  2  1  0
  8  6  1  0
  3 10  1  0
  4 11  1  0
  5 12  1  0
  5 13  1  0
  7 14  1  0
  7 15  1  0
  8 16  1  0
  9 17  1  0
M  END
