
     RDKit          3D

 13 14  0  0  0  0  0  0  0  0999 V2000
    2.9407    0.2467    0.6931 O   0  0  0  0  0  0  0  0  0  0  0  0
    1.7730   -0.0197    0.2782 C   0  0  0  0  0  0  0  0  0  0  0  0
    1.1384   -1.2548    0.3194 O   0  0  0  0  0  0  0  0  0  0  0  0
   -0.0671   -1.2035   -0.4465 C   0  0  0  0  0  0  0  0  0  0  0  0
   -0.4271    0.2251   -0.3999 C   0  0  0  0  0  0  0  0  0  0  0  0
   -1.5369    0.5719    0.5907 C   0  0  0  0  0  0  0  0  0  0  0  0
   -1.5964    0.7650   -0.7701 O   0  0  0  0  0  0  0  0  0  0  0  0
    0.8452    0.9318   -0.3360 C   0  0  0  0  0  0  0  0  0  0  0  0
    1.0670    2.1004   -0.7293 O   0  0  0  0  0  0  0  0  0  0  0  0
    0.0943   -1.5895   -1.4691 H   0  0  0  0  0  0  0  0  0  0  0  0
   -0.8046   -1.8756    0.0309 H   0  0  0  0  0  0  0  0  0  0  0  0
   -2.1746   -0.2734    0.9568 H   0  0  0  0  0  0  0  0  0  0  0  0
   -1.2519    1.3756    1.2819 H   0  0  0  0  0  0  0  0  0  0  0  0
  1  2  2  0
  2  3  1  0
  3  4  1  0
  4  5  1  0
  5  6  1  0
  6  7  1  0
  5  8  1  0
  8  9  2  0
  8  2  1  0
  7  5  1  0
  4 10  1  0
  4 11  1  0
  6 12  1  0
  6 13  1  0
M  END
