
     RDKit          3D

 17 18  0  0  0  0  0  0  0  0999 V2000
   -0.8486    2.2301    0.6833 O   0  0  0  0  0  0  0  0  0  0  0  0
   -0.3201    1.2914    0.1111 C   0  0  0  0  0  0  0  0  0  0  0  0
    1.1575    1.4034    0.0466 C   0  0  0  0  0  0  0  0  0  0  0  0
    1.7624    0.3857   -0.6481 O   0  0  0  0  0  0  0  0  0  0  0  0
    1.6574   -0.8543   -0.0932 C   0  0  0  0  0  0  0  0  0  0  0  0
    0.4732   -1.1342    0.5258 O   0  0  0  0  0  0  0  0  0  0  0  0
   -0.6420   -1.0857   -0.2543 C   0  0  0  0  0  0  0  0  0  0  0  0
   -1.9157   -0.7054    0.5065 C   0  0  0  0  0  0  0  0  0  0  0  0
   -1.2672    0.2756   -0.3772 C   0  0  0  0  0  0  0  0  0  0  0  0
    1.5443    1.5516    1.0738 H   0  0  0  0  0  0  0  0  0  0  0  0
    1.3756    2.3535   -0.5092 H   0  0  0  0  0  0  0  0  0  0  0  0
    1.7804   -1.6085   -0.9267 H   0  0  0  0  0  0  0  0  0  0  0  0
    2.4839   -1.1028    0.6194 H   0  0  0  0  0  0  0  0  0  0  0  0
   -0.7621   -1.7164   -1.1532 H   0  0  0  0  0  0  0  0  0  0  0  0
   -2.8374   -1.1835    0.1134 H   0  0  0  0  0  0  0  0  0  0  0  0
   -1.8683   -0.6563    1.6094 H   0  0  0  0  0  0  0  0  0  0  0  0
   -1.7734    0.5556   -1.3273 H   0  0  0  0  0  0  0  0  0  0  0  0
  1  2  2  0
  2  3  1  0
  3  4  1  0
  4  5  1  0
  5  6  1  0
  6  7  1  0
  7  8  1  0
  8  9  1  0
  9  2  1  0
  9  7  1  0
  3 10  1  0
  3 11  1  0
  5 12  1  0
  5 13  1  0
  7 14  1  0
  8 15  1  0
  8 16  1  0
  9 17  1  0
M  END
