
     RDKit          3D

 15 16  0  0  0  0  0  0  0  0999 V2000
   -1.1045    1.6475    1.2680 O   0  0  0  0  0  0  0  0  0  0  0  0
   -0.8903    0.6542    0.6174 C   0  0  0  0  0  0  0  0  0  0  0  0
   -1.9385   -0.1409   -0.0824 C   0  0  0  0  0  0  0  0  0  0  0  0
   -1.4532   -1.4725    0.1471 O   0  0  0  0  0  0  0  0  0  0  0  0
   -0.0722   -1.4523    0.2450 C   0  0  0  0  0  0  0  0  0  0  0  0
    0.6441   -2.4751    0.2751 O   0  0  0  0  0  0  0  0  0  0  0  0
    0.3420   -0.0687    0.3020 C   0  0  0  0  0  0  0  0  0  0  0  0
    1.1131    0.4914   -0.9390 C   0  0  0  0  0  0  0  0  0  0  0  0
    1.6851    0.4378    0.4527 C   0  0  0  0  0  0  0  0  0  0  0  0
   -1.8843    0.0816   -1.1623 H   0  0  0  0  0  0  0  0  0  0  0  0
   -2.9401   -0.0003    0.3565 H   0  0  0  0  0  0  0  0  0  0  0  0
    0.7351    1.4293   -1.3613 H   0  0  0  0  0  0  0  0  0  0  0  0
    1.4187   -0.3133   -1.6694 H   0  0  0  0  0  0  0  0  0  0  0  0
    2.5144   -0.2577    0.6473 H   0  0  0  0  0  0  0  0  0  0  0  0
    1.8307    1.4391    0.9031 H   0  0  0  0  0  0  0  0  0  0  0  0
  1  2  2  0
  2  3  1  0
  3  4  1  0
  4  5  1  0
  5  6  2  0
  5  7  1  0
  7  8  1  0
  8  9  1  0
  7  2  1  0
  9  7  1  0
  3 10  1  0
  3 11  1  0
  8 12  1  0
  8 13  1  0
  9 14  1  0
  9 15  1  0
M  END
