
     RDKit          3D

 19 19  0  0  0  0  0  0  0  0999 V2000
   -1.0816    2.7470    0.1761 O   0  0  0  0  0  0  0  0  0  0  0  0
   -0.5826    1.5747    0.0776 C   0  0  0  0  0  0  0  0  0  0  0  0
    0.8524    1.5753   -0.1402 C   0  0  0  0  0  0  0  0  0  0  0  0
    1.7518    0.6216   -0.1529 C   0  0  0  0  0  0  0  0  0  0  0  0
    1.8186   -0.8207    0.0241 C   0  0  0  0  0  0  0  0  0  0  0  0
    0.7617   -1.5278   -0.5167 O   0  0  0  0  0  0  0  0  0  0  0  0
   -0.3867   -1.5046    0.2308 C   0  0  0  0  0  0  0  0  0  0  0  0
   -1.4103   -0.6907   -0.5498 C   0  0  0  0  0  0  0  0  0  0  0  0
   -1.6331    0.5721    0.2175 C   0  0  0  0  0  0  0  0  0  0  0  0
    1.2196    2.5791   -0.3262 H   0  0  0  0  0  0  0  0  0  0  0  0
    2.7237    1.0524   -0.3550 H   0  0  0  0  0  0  0  0  0  0  0  0
    2.7371   -1.1926   -0.4791 H   0  0  0  0  0  0  0  0  0  0  0  0
    1.9713   -1.0603    1.1156 H   0  0  0  0  0  0  0  0  0  0  0  0
   -0.1946   -1.0849    1.2363 H   0  0  0  0  0  0  0  0  0  0  0  0
   -0.7843   -2.5368    0.4094 H   0  0  0  0  0  0  0  0  0  0  0  0
   -1.0555   -0.4253   -1.5598 H   0  0  0  0  0  0  0  0  0  0  0  0
   -2.3447   -1.2529   -0.6328 H   0  0  0  0  0  0  0  0  0  0  0  0
   -1.7543    0.3719    1.3213 H   0  0  0  0  0  0  0  0  0  0  0  0
   -2.6085    1.0025   -0.0962 H   0  0  0  0  0  0  0  0  0  0  0  0
  1  2  2  0
  2  3  1  0
  3  4  2  3
  4  5  1  0
  5  6  1  0
  6  7  1  0
  7  8  1  0
  8  9  1  0
  9  2  1  0
  3 10  1  0
  4 11  1  0
  5 12  1  0
  5 13  1  0
  7 14  1  0
  7 15  1  0
  8 16  1  0
  8 17  1  0
  9 18  1  0
  9 19  1  0
M  END
