
     RDKit          3D

 17 18  0  0  0  0  0  0  0  0999 V2000
   -1.5097    2.2573   -0.0921 O   0  0  0  0  0  0  0  0  0  0  0  0
   -0.9361    1.2121    0.1252 C   0  0  0  0  0  0  0  0  0  0  0  0
   -1.0844    0.2642    1.2348 C   0  0  0  0  0  0  0  0  0  0  0  0
   -0.9708   -0.9297    0.6564 C   0  0  0  0  0  0  0  0  0  0  0  0
   -0.7802   -0.7532   -0.7452 C   0  0  0  0  0  0  0  0  0  0  0  0
    0.1455   -0.3692   -1.7162 C   0  0  0  0  0  0  0  0  0  0  0  0
    0.1127    0.5174   -0.6386 C   0  0  0  0  0  0  0  0  0  0  0  0
    1.3671    0.4477    0.2295 C   0  0  0  0  0  0  0  0  0  0  0  0
    1.1253   -0.2502    1.4082 O   0  0  0  0  0  0  0  0  0  0  0  0
   -1.2806    0.4926    2.3079 H   0  0  0  0  0  0  0  0  0  0  0  0
   -1.0330   -1.8336    1.2882 H   0  0  0  0  0  0  0  0  0  0  0  0
   -1.8614   -0.5749   -1.1568 H   0  0  0  0  0  0  0  0  0  0  0  0
    1.0250   -1.0507   -1.8893 H   0  0  0  0  0  0  0  0  0  0  0  0
   -0.1601    0.0302   -2.7192 H   0  0  0  0  0  0  0  0  0  0  0  0
    1.7853    1.4534    0.4201 H   0  0  0  0  0  0  0  0  0  0  0  0
    2.1304   -0.1004   -0.3381 H   0  0  0  0  0  0  0  0  0  0  0  0
    1.9252   -0.8130    1.6252 H   0  0  0  0  0  0  0  0  0  0  0  0
  1  2  2  0
  2  3  1  0
  3  4  2  0
  4  5  1  0
  5  6  1  0
  6  7  1  0
  7  8  1  0
  8  9  1  0
  7  2  1  0
  7  5  1  0
  3 10  1  0
  4 11  1  0
  5 12  1  0
  6 13  1  0
  6 14  1  0
  8 15  1  0
  8 16  1  0
  9 17  1  0
M  END
