
     RDKit          3D

 19 19  0  0  0  0  0  0  0  0999 V2000
   -2.2257   -1.9173   -0.5659 O   0  0  0  0  0  0  0  0  0  0  0  0
   -1.3637   -1.1405   -0.2290 C   0  0  0  0  0  0  0  0  0  0  0  0
    0.1268   -1.2490   -0.3504 C   0  0  0  0  0  0  0  0  0  0  0  0
    0.6924   -0.2784    0.6484 C   0  0  0  0  0  0  0  0  0  0  0  0
    1.4977    0.8241   -0.0048 C   0  0  0  0  0  0  0  0  0  0  0  0
    2.5669    0.2853   -0.7151 O   0  0  0  0  0  0  0  0  0  0  0  0
   -0.4748    0.2407    1.4191 C   0  0  0  0  0  0  0  0  0  0  0  0
   -1.5983    0.1793    0.4218 C   0  0  0  0  0  0  0  0  0  0  0  0
   -1.4419    1.1619   -0.5546 O   0  0  0  0  0  0  0  0  0  0  0  0
    0.4598   -1.0089   -1.3756 H   0  0  0  0  0  0  0  0  0  0  0  0
    0.3864   -2.2937   -0.0543 H   0  0  0  0  0  0  0  0  0  0  0  0
    1.3861   -0.8099    1.3356 H   0  0  0  0  0  0  0  0  0  0  0  0
    1.9025    1.4539    0.8149 H   0  0  0  0  0  0  0  0  0  0  0  0
    0.8828    1.4718   -0.6464 H   0  0  0  0  0  0  0  0  0  0  0  0
    2.9317    0.9452   -1.3549 H   0  0  0  0  0  0  0  0  0  0  0  0
   -0.6876   -0.4582    2.2484 H   0  0  0  0  0  0  0  0  0  0  0  0
   -0.2665    1.2693    1.7580 H   0  0  0  0  0  0  0  0  0  0  0  0
   -2.5963    0.2453    0.8902 H   0  0  0  0  0  0  0  0  0  0  0  0
   -2.1783    1.0790   -1.2137 H   0  0  0  0  0  0  0  0  0  0  0  0
  1  2  2  0
  2  3  1  0
  3  4  1  0
  4  5  1  0
  5  6  1  0
  4  7  1  0
  7  8  1  0
  8  9  1  0
  8  2  1  0
  3 10  1  0
  3 11  1  0
  4 12  1  0
  5 13  1  0
  5 14  1  0
  6 15  1  0
  7 16  1  0
  7 17  1  0
  8 18  1  0
  9 19  1  0
M  END
