
     RDKit          3D

 13 14  0  0  0  0  0  0  0  0999 V2000
   -0.0818   -0.7938    2.2564 O   0  0  0  0  0  0  0  0  0  0  0  0
   -0.1828   -0.4608    1.1134 C   0  0  0  0  0  0  0  0  0  0  0  0
   -1.1123    0.5151    0.5044 C   0  0  0  0  0  0  0  0  0  0  0  0
   -0.5758    0.5228   -0.9354 C   0  0  0  0  0  0  0  0  0  0  0  0
    0.7203    1.0714   -1.0056 O   0  0  0  0  0  0  0  0  0  0  0  0
    1.5523    0.1332   -0.3944 C   0  0  0  0  0  0  0  0  0  0  0  0
    2.7903    0.2633   -0.2405 O   0  0  0  0  0  0  0  0  0  0  0  0
    0.6320   -0.9666   -0.0121 C   0  0  0  0  0  0  0  0  0  0  0  0
   -0.2886   -0.8570   -1.0855 O   0  0  0  0  0  0  0  0  0  0  0  0
   -1.0815    1.5106    0.9439 H   0  0  0  0  0  0  0  0  0  0  0  0
   -2.1532    0.0966    0.4133 H   0  0  0  0  0  0  0  0  0  0  0  0
   -1.2859    0.8957   -1.6572 H   0  0  0  0  0  0  0  0  0  0  0  0
    1.0671   -1.9306    0.0992 H   0  0  0  0  0  0  0  0  0  0  0  0
  1  2  2  0
  2  3  1  0
  3  4  1  0
  4  5  1  0
  5  6  1  0
  6  7  2  0
  6  8  1  0
  8  9  1  0
  8  2  1  0
  9  4  1  0
  3 10  1  0
  3 11  1  0
  4 12  1  0
  8 13  1  0
M  END
