
     RDKit          3D

 17 17  0  0  0  0  0  0  0  0999 V2000
   -2.4423   -1.5994   -0.1303 O   0  0  0  0  0  0  0  0  0  0  0  0
   -1.4374   -0.8538   -0.0049 C   0  0  0  0  0  0  0  0  0  0  0  0
   -1.6298    0.4509    0.6058 C   0  0  0  0  0  0  0  0  0  0  0  0
   -0.6215    1.3071    0.5553 C   0  0  0  0  0  0  0  0  0  0  0  0
    0.6593    0.9970   -0.0811 C   0  0  0  0  0  0  0  0  0  0  0  0
    0.6541    1.5541   -1.3656 O   0  0  0  0  0  0  0  0  0  0  0  0
    1.0078   -0.4479   -0.1339 C   0  0  0  0  0  0  0  0  0  0  0  0
    1.6385   -0.8080    1.0414 O   0  0  0  0  0  0  0  0  0  0  0  0
   -0.1464   -1.3500   -0.4814 C   0  0  0  0  0  0  0  0  0  0  0  0
   -2.5557    0.7273    1.0872 H   0  0  0  0  0  0  0  0  0  0  0  0
   -0.7639    2.2848    1.0122 H   0  0  0  0  0  0  0  0  0  0  0  0
    1.4903    1.5175    0.4808 H   0  0  0  0  0  0  0  0  0  0  0  0
    1.5100    1.9964   -1.5619 H   0  0  0  0  0  0  0  0  0  0  0  0
    1.7665   -0.5763   -0.9541 H   0  0  0  0  0  0  0  0  0  0  0  0
    1.0830   -1.3876    1.6239 H   0  0  0  0  0  0  0  0  0  0  0  0
    0.0025   -2.3669   -0.0927 H   0  0  0  0  0  0  0  0  0  0  0  0
   -0.2151   -1.4453   -1.6007 H   0  0  0  0  0  0  0  0  0  0  0  0
  1  2  2  0
  2  3  1  0
  3  4  2  0
  4  5  1  0
  5  6  1  0
  5  7  1  0
  7  8  1  0
  7  9  1  0
  9  2  1  0
  3 10  1  0
  4 11  1  0
  5 12  1  0
  6 13  1  0
  7 14  1  0
  8 15  1  0
  9 16  1  0
  9 17  1  0
M  END
