
     RDKit          3D

 18 19  0  0  0  0  0  0  0  0999 V2000
   -0.5670    2.5515   -0.7109 O   0  0  0  0  0  0  0  0  0  0  0  0
   -0.2619    1.4292   -0.3519 C   0  0  0  0  0  0  0  0  0  0  0  0
    0.9433    1.1864    0.4908 C   0  0  0  0  0  0  0  0  0  0  0  0
    1.6004   -0.0506   -0.1364 C   0  0  0  0  0  0  0  0  0  0  0  0
    0.6643   -1.1975    0.2344 C   0  0  0  0  0  0  0  0  0  0  0  0
   -0.6685   -1.0319   -0.3948 C   0  0  0  0  0  0  0  0  0  0  0  0
   -1.7704   -0.4233    0.4066 C   0  0  0  0  0  0  0  0  0  0  0  0
   -1.0962    0.2984   -0.7569 C   0  0  0  0  0  0  0  0  0  0  0  0
    1.6070    2.0524    0.4804 H   0  0  0  0  0  0  0  0  0  0  0  0
    0.6807    0.8957    1.5316 H   0  0  0  0  0  0  0  0  0  0  0  0
    2.6083   -0.2048    0.2408 H   0  0  0  0  0  0  0  0  0  0  0  0
    1.5527    0.0297   -1.2436 H   0  0  0  0  0  0  0  0  0  0  0  0
    0.5458   -1.1704    1.3356 H   0  0  0  0  0  0  0  0  0  0  0  0
    1.1542   -2.1845    0.0106 H   0  0  0  0  0  0  0  0  0  0  0  0
   -0.9503   -1.8757   -1.0893 H   0  0  0  0  0  0  0  0  0  0  0  0
   -2.8263   -0.6485    0.2159 H   0  0  0  0  0  0  0  0  0  0  0  0
   -1.5557   -0.0840    1.4371 H   0  0  0  0  0  0  0  0  0  0  0  0
   -1.6605    0.4277   -1.7001 H   0  0  0  0  0  0  0  0  0  0  0  0
  1  2  2  0
  2  3  1  0
  3  4  1  0
  4  5  1  0
  5  6  1  0
  6  7  1  0
  7  8  1  0
  8  2  1  0
  8  6  1  0
  3  9  1  0
  3 10  1  0
  4 11  1  0
  4 12  1  0
  5 13  1  0
  5 14  1  0
  6 15  1  0
  7 16  1  0
  7 17  1  0
  8 18  1  0
M  END
