
     RDKit          3D

 17 19  0  0  0  0  0  0  0  0999 V2000
   -1.0227   -1.1769   -2.4191 O   0  0  0  0  0  0  0  0  0  0  0  0
   -0.8227   -0.7144   -1.3344 C   0  0  0  0  0  0  0  0  0  0  0  0
   -1.6274   -0.3384   -0.1367 C   0  0  0  0  0  0  0  0  0  0  0  0
   -1.9495    0.9345    0.3848 C   0  0  0  0  0  0  0  0  0  0  0  0
   -0.6601    0.9180   -0.2590 C   0  0  0  0  0  0  0  0  0  0  0  0
    0.2633   -0.2350   -0.4969 C   0  0  0  0  0  0  0  0  0  0  0  0
    1.0748   -0.9148    0.4322 C   0  0  0  0  0  0  0  0  0  0  0  0
    1.6516   -0.1491   -0.8058 C   0  0  0  0  0  0  0  0  0  0  0  0
    2.2960    1.0698   -0.4924 O   0  0  0  0  0  0  0  0  0  0  0  0
   -1.3009   -1.0773    0.6680 H   0  0  0  0  0  0  0  0  0  0  0  0
   -1.9213    1.1606    1.4944 H   0  0  0  0  0  0  0  0  0  0  0  0
   -2.8679    1.4450   -0.0409 H   0  0  0  0  0  0  0  0  0  0  0  0
   -0.7294    1.4472   -1.2675 H   0  0  0  0  0  0  0  0  0  0  0  0
    1.3771   -0.5355    1.4108 H   0  0  0  0  0  0  0  0  0  0  0  0
    1.1989   -2.0345    0.3546 H   0  0  0  0  0  0  0  0  0  0  0  0
    2.1951   -0.7717   -1.5420 H   0  0  0  0  0  0  0  0  0  0  0  0
    2.8451    0.9724    0.3002 H   0  0  0  0  0  0  0  0  0  0  0  0
  1  2  2  0
  2  3  1  0
  3  4  1  0
  4  5  1  0
  5  6  1  0
  6  7  1  0
  7  8  1  0
  8  9  1  0
  6  2  1  0
  5  3  1  0
  8  6  1  0
  3 10  1  0
  4 11  1  0
  4 12  1  0
  5 13  1  0
  7 14  1  0
  7 15  1  0
  8 16  1  0
  9 17  1  0
M  END
