
     RDKit          3D

 19 20  0  0  0  0  0  0  0  0999 V2000
    1.8965   -1.9853   -0.6884 O   0  0  0  0  0  0  0  0  0  0  0  0
    1.2268   -1.1218   -0.1621 C   0  0  0  0  0  0  0  0  0  0  0  0
    1.9697    0.1300    0.1029 C   0  0  0  0  0  0  0  0  0  0  0  0
    1.1658    1.3667   -0.1100 C   0  0  0  0  0  0  0  0  0  0  0  0
   -0.1350    1.6115    0.0789 C   0  0  0  0  0  0  0  0  0  0  0  0
   -1.0773    0.6143    0.5723 C   0  0  0  0  0  0  0  0  0  0  0  0
   -2.2496    0.0765   -0.0344 C   0  0  0  0  0  0  0  0  0  0  0  0
   -1.0413   -0.5041   -0.5250 C   0  0  0  0  0  0  0  0  0  0  0  0
   -0.1742   -1.5552    0.0785 C   0  0  0  0  0  0  0  0  0  0  0  0
    2.3832    0.1155    1.1523 H   0  0  0  0  0  0  0  0  0  0  0  0
    2.8434    0.2019   -0.5738 H   0  0  0  0  0  0  0  0  0  0  0  0
    1.7249    2.2416   -0.4887 H   0  0  0  0  0  0  0  0  0  0  0  0
   -0.4340    2.6190   -0.1665 H   0  0  0  0  0  0  0  0  0  0  0  0
   -0.8535    0.3052    1.6178 H   0  0  0  0  0  0  0  0  0  0  0  0
   -2.9729   -0.4763    0.6204 H   0  0  0  0  0  0  0  0  0  0  0  0
   -2.8267    0.7312   -0.7421 H   0  0  0  0  0  0  0  0  0  0  0  0
   -0.6901   -0.2115   -1.5407 H   0  0  0  0  0  0  0  0  0  0  0  0
   -0.3701   -2.5268   -0.3758 H   0  0  0  0  0  0  0  0  0  0  0  0
   -0.3856   -1.6324    1.1845 H   0  0  0  0  0  0  0  0  0  0  0  0
  1  2  2  0
  2  3  1  0
  3  4  1  0
  4  5  2  0
  5  6  1  0
  6  7  1  0
  7  8  1  0
  8  9  1  0
  9  2  1  0
  8  6  1  0
  3 10  1  0
  3 11  1  0
  4 12  1  0
  5 13  1  0
  6 14  1  0
  7 15  1  0
  7 16  1  0
  8 17  1  0
  9 18  1  0
  9 19  1  0
M  END
