
     RDKit          3D

 14 14  0  0  0  0  0  0  0  0999 V2000
    0.9322    2.4599    0.1284 O   0  0  0  0  0  0  0  0  0  0  0  0
    0.6299    1.2553   -0.0584 C   0  0  0  0  0  0  0  0  0  0  0  0
    1.5642    0.1555    0.1527 C   0  0  0  0  0  0  0  0  0  0  0  0
    1.1086   -1.0981    0.1895 C   0  0  0  0  0  0  0  0  0  0  0  0
   -0.3095   -1.3583    0.0199 C   0  0  0  0  0  0  0  0  0  0  0  0
   -0.7981   -2.4434   -0.3608 O   0  0  0  0  0  0  0  0  0  0  0  0
   -1.2275   -0.2382    0.3273 C   0  0  0  0  0  0  0  0  0  0  0  0
   -0.7419    0.9224   -0.5162 C   0  0  0  0  0  0  0  0  0  0  0  0
    2.6174    0.3458    0.2793 H   0  0  0  0  0  0  0  0  0  0  0  0
    1.7579   -1.9502    0.3420 H   0  0  0  0  0  0  0  0  0  0  0  0
   -2.2826   -0.4957    0.1186 H   0  0  0  0  0  0  0  0  0  0  0  0
   -1.1335    0.0847    1.4038 H   0  0  0  0  0  0  0  0  0  0  0  0
   -1.4309    1.7850   -0.4467 H   0  0  0  0  0  0  0  0  0  0  0  0
   -0.6862    0.5755   -1.5794 H   0  0  0  0  0  0  0  0  0  0  0  0
  1  2  2  0
  2  3  1  0
  3  4  2  0
  4  5  1  0
  5  6  2  0
  5  7  1  0
  7  8  1  0
  8  2  1  0
  3  9  1  0
  4 10  1  0
  7 11  1  0
  7 12  1  0
  8 13  1  0
  8 14  1  0
M  END
