
     RDKit          3D

 15 17  0  0  0  0  0  0  0  0999 V2000
   -0.5547    2.1472   -1.3390 O   0  0  0  0  0  0  0  0  0  0  0  0
   -0.3871    1.0658   -0.8137 C   0  0  0  0  0  0  0  0  0  0  0  0
    0.7274    0.0865   -0.9173 C   0  0  0  0  0  0  0  0  0  0  0  0
    1.6363    0.2515    0.2879 C   0  0  0  0  0  0  0  0  0  0  0  0
    1.0579   -0.4134    1.3431 O   0  0  0  0  0  0  0  0  0  0  0  0
   -0.2450   -0.7409    1.0178 C   0  0  0  0  0  0  0  0  0  0  0  0
   -0.2253   -0.9544   -0.4242 C   0  0  0  0  0  0  0  0  0  0  0  0
   -1.0519    0.1300    0.1283 C   0  0  0  0  0  0  0  0  0  0  0  0
   -2.4168    0.0411    0.1533 O   0  0  0  0  0  0  0  0  0  0  0  0
    1.1970   -0.0427   -1.8770 H   0  0  0  0  0  0  0  0  0  0  0  0
    2.6623   -0.0691    0.0475 H   0  0  0  0  0  0  0  0  0  0  0  0
    1.6587    1.3446    0.5726 H   0  0  0  0  0  0  0  0  0  0  0  0
   -0.7691   -1.3366    1.7512 H   0  0  0  0  0  0  0  0  0  0  0  0
   -0.5595   -1.7979   -0.9804 H   0  0  0  0  0  0  0  0  0  0  0  0
   -2.7301    0.2882    1.0498 H   0  0  0  0  0  0  0  0  0  0  0  0
  1  2  2  0
  2  3  1  0
  3  4  1  0
  4  5  1  0
  5  6  1  0
  6  7  1  0
  7  8  1  0
  8  9  1  0
  8  2  1  0
  7  3  1  0
  8  6  1  0
  3 10  1  0
  4 11  1  0
  4 12  1  0
  6 13  1  0
  7 14  1  0
  9 15  1  0
M  END
