
     RDKit          3D

 17 18  0  0  0  0  0  0  0  0999 V2000
    3.5460   -0.0443   -1.1354 O   0  0  0  0  0  0  0  0  0  0  0  0
    2.3802   -0.0705   -0.6417 C   0  0  0  0  0  0  0  0  0  0  0  0
    1.5489    1.1168   -0.4813 C   0  0  0  0  0  0  0  0  0  0  0  0
    0.4236    0.7211    0.0607 C   0  0  0  0  0  0  0  0  0  0  0  0
   -0.9570    1.0552    0.5860 C   0  0  0  0  0  0  0  0  0  0  0  0
   -1.7581   -0.0779   -0.0625 C   0  0  0  0  0  0  0  0  0  0  0  0
   -0.7896   -1.2682   -0.1603 C   0  0  0  0  0  0  0  0  0  0  0  0
    0.4907   -0.7551    0.4082 C   0  0  0  0  0  0  0  0  0  0  0  0
    1.6677   -1.1614   -0.1690 O   0  0  0  0  0  0  0  0  0  0  0  0
    1.7592    2.1475   -0.7378 H   0  0  0  0  0  0  0  0  0  0  0  0
   -1.2924    2.0408    0.2222 H   0  0  0  0  0  0  0  0  0  0  0  0
   -0.9948    0.9679    1.6852 H   0  0  0  0  0  0  0  0  0  0  0  0
   -2.1121    0.2327   -1.0620 H   0  0  0  0  0  0  0  0  0  0  0  0
   -2.5829   -0.3305    0.6324 H   0  0  0  0  0  0  0  0  0  0  0  0
   -0.7076   -1.6516   -1.1789 H   0  0  0  0  0  0  0  0  0  0  0  0
   -1.1529   -2.0924    0.5126 H   0  0  0  0  0  0  0  0  0  0  0  0
    0.5311   -0.8301    1.5217 H   0  0  0  0  0  0  0  0  0  0  0  0
  1  2  2  0
  2  3  1  0
  3  4  2  0
  4  5  1  0
  5  6  1  0
  6  7  1  0
  7  8  1  0
  8  9  1  0
  9  2  1  0
  8  4  1  0
  3 10  1  0
  5 11  1  0
  5 12  1  0
  6 13  1  0
  6 14  1  0
  7 15  1  0
  7 16  1  0
  8 17  1  0
M  END
