
     RDKit          3D

 17 18  0  0  0  0  0  0  0  0999 V2000
   -0.9747   -0.5565    2.3080 O   0  0  0  0  0  0  0  0  0  0  0  0
   -0.8384   -0.3784    1.1212 C   0  0  0  0  0  0  0  0  0  0  0  0
    0.3823    0.2532    0.4879 C   0  0  0  0  0  0  0  0  0  0  0  0
    1.4438   -0.7800    0.3047 C   0  0  0  0  0  0  0  0  0  0  0  0
    2.5621   -0.2235   -0.2704 O   0  0  0  0  0  0  0  0  0  0  0  0
   -0.1311    0.6867   -0.8998 C   0  0  0  0  0  0  0  0  0  0  0  0
   -1.5793    0.8032   -0.5799 C   0  0  0  0  0  0  0  0  0  0  0  0
   -2.6000    0.0031   -0.6827 O   0  0  0  0  0  0  0  0  0  0  0  0
   -1.6836   -0.6615   -0.0411 C   0  0  0  0  0  0  0  0  0  0  0  0
    0.6975    1.1160    1.0845 H   0  0  0  0  0  0  0  0  0  0  0  0
    1.0271   -1.5767   -0.3556 H   0  0  0  0  0  0  0  0  0  0  0  0
    1.7200   -1.2108    1.2909 H   0  0  0  0  0  0  0  0  0  0  0  0
    2.4811    0.7154   -0.5251 H   0  0  0  0  0  0  0  0  0  0  0  0
    0.1280   -0.0329   -1.6705 H   0  0  0  0  0  0  0  0  0  0  0  0
    0.2866    1.6750   -1.0804 H   0  0  0  0  0  0  0  0  0  0  0  0
   -1.7383    1.6157    0.1965 H   0  0  0  0  0  0  0  0  0  0  0  0
   -1.1831   -1.4480   -0.6883 H   0  0  0  0  0  0  0  0  0  0  0  0
  1  2  2  0
  2  3  1  0
  3  4  1  0
  4  5  1  0
  3  6  1  0
  6  7  1  0
  7  8  1  0
  8  9  1  0
  9  2  1  0
  9  7  1  0
  3 10  1  0
  4 11  1  0
  4 12  1  0
  5 13  1  0
  6 14  1  0
  6 15  1  0
  7 16  1  0
  9 17  1  0
M  END
