
     RDKit          3D

 21 22  0  0  0  0  0  0  0  0999 V2000
   -1.0534    1.6215    1.6702 O   0  0  0  0  0  0  0  0  0  0  0  0
   -1.0949    0.9533    0.6700 C   0  0  0  0  0  0  0  0  0  0  0  0
   -2.1716    0.0053    0.3078 C   0  0  0  0  0  0  0  0  0  0  0  0
   -1.3618   -1.1837   -0.2027 C   0  0  0  0  0  0  0  0  0  0  0  0
   -0.0690   -0.5945   -0.7312 C   0  0  0  0  0  0  0  0  0  0  0  0
    1.0904   -1.0417    0.1653 C   0  0  0  0  0  0  0  0  0  0  0  0
    2.0519    0.1047    0.2052 C   0  0  0  0  0  0  0  0  0  0  0  0
    1.2463    1.3410   -0.0915 C   0  0  0  0  0  0  0  0  0  0  0  0
   -0.1229    0.8869   -0.4430 C   0  0  0  0  0  0  0  0  0  0  0  0
   -2.7607    0.3897   -0.5526 H   0  0  0  0  0  0  0  0  0  0  0  0
   -2.8232   -0.2678    1.1408 H   0  0  0  0  0  0  0  0  0  0  0  0
   -1.9159   -1.7193   -1.0068 H   0  0  0  0  0  0  0  0  0  0  0  0
   -1.1401   -1.8404    0.6604 H   0  0  0  0  0  0  0  0  0  0  0  0
    0.1114   -0.8273   -1.7848 H   0  0  0  0  0  0  0  0  0  0  0  0
    0.6315   -1.2489    1.1692 H   0  0  0  0  0  0  0  0  0  0  0  0
    1.5749   -1.9557   -0.2352 H   0  0  0  0  0  0  0  0  0  0  0  0
    2.8506   -0.0651   -0.5728 H   0  0  0  0  0  0  0  0  0  0  0  0
    2.4998    0.1783    1.2175 H   0  0  0  0  0  0  0  0  0  0  0  0
    1.7081    1.8326   -0.9958 H   0  0  0  0  0  0  0  0  0  0  0  0
    1.2799    2.0512    0.7682 H   0  0  0  0  0  0  0  0  0  0  0  0
   -0.5314    1.3799   -1.3581 H   0  0  0  0  0  0  0  0  0  0  0  0
  1  2  2  0
  2  3  1  0
  3  4  1  0
  4  5  1  0
  5  6  1  0
  6  7  1  0
  7  8  1  0
  8  9  1  0
  9  2  1  0
  9  5  1  0
  3 10  1  0
  3 11  1  0
  4 12  1  0
  4 13  1  0
  5 14  1  0
  6 15  1  0
  6 16  1  0
  7 17  1  0
  7 18  1  0
  8 19  1  0
  8 20  1  0
  9 21  1  0
M  END
