
     RDKit          3D

 17 18  0  0  0  0  0  0  0  0999 V2000
    1.8992   -1.5429   -1.4937 O   0  0  0  0  0  0  0  0  0  0  0  0
    1.4917   -0.8270   -0.5639 C   0  0  0  0  0  0  0  0  0  0  0  0
    2.3362    0.1025    0.2089 C   0  0  0  0  0  0  0  0  0  0  0  0
    1.5630    0.9825    0.8481 C   0  0  0  0  0  0  0  0  0  0  0  0
    0.1501    0.7237    0.5626 C   0  0  0  0  0  0  0  0  0  0  0  0
   -1.0870    1.1098    0.5639 C   0  0  0  0  0  0  0  0  0  0  0  0
   -1.9991    0.0655    0.0162 C   0  0  0  0  0  0  0  0  0  0  0  0
   -0.9940   -0.6606   -0.9143 C   0  0  0  0  0  0  0  0  0  0  0  0
    0.1682   -0.6831    0.0159 C   0  0  0  0  0  0  0  0  0  0  0  0
    3.4080    0.1014    0.2704 H   0  0  0  0  0  0  0  0  0  0  0  0
    1.9224    1.7748    1.4848 H   0  0  0  0  0  0  0  0  0  0  0  0
   -1.4537    2.0606    0.9101 H   0  0  0  0  0  0  0  0  0  0  0  0
   -2.3030   -0.6799    0.7708 H   0  0  0  0  0  0  0  0  0  0  0  0
   -2.8252    0.4708   -0.5736 H   0  0  0  0  0  0  0  0  0  0  0  0
   -1.3796   -1.6474   -1.1928 H   0  0  0  0  0  0  0  0  0  0  0  0
   -0.8492    0.0256   -1.7658 H   0  0  0  0  0  0  0  0  0  0  0  0
   -0.0480   -1.3761    0.8522 H   0  0  0  0  0  0  0  0  0  0  0  0
  1  2  2  0
  2  3  1  0
  3  4  2  0
  4  5  1  0
  5  6  2  0
  6  7  1  0
  7  8  1  0
  8  9  1  0
  9  2  1  0
  9  5  1  0
  3 10  1  0
  4 11  1  0
  6 12  1  0
  7 13  1  0
  7 14  1  0
  8 15  1  0
  8 16  1  0
  9 17  1  0
M  END
