
     RDKit          3D

 19 20  0  0  0  0  0  0  0  0999 V2000
    2.8701    0.8293   -0.1473 O   0  0  0  0  0  0  0  0  0  0  0  0
    1.6468    0.6587   -0.0388 C   0  0  0  0  0  0  0  0  0  0  0  0
    0.6659    1.7572   -0.0472 C   0  0  0  0  0  0  0  0  0  0  0  0
   -0.6080    1.4337    0.0813 C   0  0  0  0  0  0  0  0  0  0  0  0
   -1.1095    0.1543    0.5877 C   0  0  0  0  0  0  0  0  0  0  0  0
   -1.2953   -0.8086   -0.5925 C   0  0  0  0  0  0  0  0  0  0  0  0
    0.1395   -0.9003   -1.0985 C   0  0  0  0  0  0  0  0  0  0  0  0
    1.0178   -0.7044    0.1157 C   0  0  0  0  0  0  0  0  0  0  0  0
    0.0590   -0.5475    1.2944 C   0  0  0  0  0  0  0  0  0  0  0  0
    1.0349    2.7617   -0.1570 H   0  0  0  0  0  0  0  0  0  0  0  0
   -1.3473    2.1933   -0.2191 H   0  0  0  0  0  0  0  0  0  0  0  0
   -1.9949    0.2187    1.2167 H   0  0  0  0  0  0  0  0  0  0  0  0
   -1.9898   -0.4234   -1.3359 H   0  0  0  0  0  0  0  0  0  0  0  0
   -1.5514   -1.8189   -0.2174 H   0  0  0  0  0  0  0  0  0  0  0  0
    0.2492   -0.0931   -1.8478 H   0  0  0  0  0  0  0  0  0  0  0  0
    0.3008   -1.8744   -1.5947 H   0  0  0  0  0  0  0  0  0  0  0  0
    1.7536   -1.4876    0.2631 H   0  0  0  0  0  0  0  0  0  0  0  0
   -0.2801   -1.5014    1.6897 H   0  0  0  0  0  0  0  0  0  0  0  0
    0.4387    0.1526    2.0476 H   0  0  0  0  0  0  0  0  0  0  0  0
  1  2  2  0
  2  3  1  0
  3  4  2  0
  4  5  1  0
  5  6  1  0
  6  7  1  0
  7  8  1  0
  8  9  1  0
  8  2  1  0
  9  5  1  0
  3 10  1  0
  4 11  1  0
  5 12  1  0
  6 13  1  0
  6 14  1  0
  7 15  1  0
  7 16  1  0
  8 17  1  0
  9 18  1  0
  9 19  1  0
M  END
