
     RDKit          3D

 16 16  0  0  0  0  0  0  0  0999 V2000
   -2.5121   -0.9266    1.0369 O   0  0  0  0  0  0  0  0  0  0  0  0
   -1.6909   -0.4058    0.2528 C   0  0  0  0  0  0  0  0  0  0  0  0
   -1.6339    0.9801   -0.2304 C   0  0  0  0  0  0  0  0  0  0  0  0
   -0.4326    1.2507   -0.7057 C   0  0  0  0  0  0  0  0  0  0  0  0
    0.4526    0.0692   -0.5923 C   0  0  0  0  0  0  0  0  0  0  0  0
    1.4113    0.1964    0.5733 C   0  0  0  0  0  0  0  0  0  0  0  0
    2.2435   -0.8932    0.6955 O   0  0  0  0  0  0  0  0  0  0  0  0
   -0.5135   -1.0555   -0.4279 C   0  0  0  0  0  0  0  0  0  0  0  0
   -2.4718    1.6875   -0.1995 H   0  0  0  0  0  0  0  0  0  0  0  0
   -0.0770    2.1959   -1.1368 H   0  0  0  0  0  0  0  0  0  0  0  0
    1.1047   -0.0491   -1.5049 H   0  0  0  0  0  0  0  0  0  0  0  0
    2.0423    1.0896    0.3786 H   0  0  0  0  0  0  0  0  0  0  0  0
    0.8683    0.4050    1.5278 H   0  0  0  0  0  0  0  0  0  0  0  0
    2.2560   -1.2909    1.5967 H   0  0  0  0  0  0  0  0  0  0  0  0
   -0.1554   -1.8858    0.1728 H   0  0  0  0  0  0  0  0  0  0  0  0
   -0.8913   -1.3676   -1.4369 H   0  0  0  0  0  0  0  0  0  0  0  0
  1  2  2  0
  2  3  1  0
  3  4  2  0
  4  5  1  0
  5  6  1  0
  6  7  1  0
  5  8  1  0
  8  2  1  0
  3  9  1  0
  4 10  1  0
  5 11  1  0
  6 12  1  0
  6 13  1  0
  7 14  1  0
  8 15  1  0
  8 16  1  0
M  END
