
     RDKit          3D

 17 18  0  0  0  0  0  0  0  0999 V2000
    1.4941    0.0759    2.1457 O   0  0  0  0  0  0  0  0  0  0  0  0
    0.9709    0.1180    1.0658 C   0  0  0  0  0  0  0  0  0  0  0  0
    1.6596   -0.5075   -0.1158 C   0  0  0  0  0  0  0  0  0  0  0  0
    0.7575   -0.8819   -1.0804 O   0  0  0  0  0  0  0  0  0  0  0  0
   -0.4122   -0.1765   -1.1008 C   0  0  0  0  0  0  0  0  0  0  0  0
   -0.2503    1.2746   -0.6596 C   0  0  0  0  0  0  0  0  0  0  0  0
   -0.3341    0.7455    0.7577 C   0  0  0  0  0  0  0  0  0  0  0  0
   -1.2209   -0.3642    0.1923 C   0  0  0  0  0  0  0  0  0  0  0  0
   -1.0031   -1.5812    0.8181 O   0  0  0  0  0  0  0  0  0  0  0  0
    2.2546   -1.3667    0.2531 H   0  0  0  0  0  0  0  0  0  0  0  0
    2.2998    0.2926   -0.5424 H   0  0  0  0  0  0  0  0  0  0  0  0
   -1.0055   -0.3163   -1.9979 H   0  0  0  0  0  0  0  0  0  0  0  0
   -1.1846    1.8283   -0.9061 H   0  0  0  0  0  0  0  0  0  0  0  0
    0.6908    1.7424   -0.9427 H   0  0  0  0  0  0  0  0  0  0  0  0
   -0.7825    1.3842    1.5013 H   0  0  0  0  0  0  0  0  0  0  0  0
   -2.2615   -0.0368    0.1004 H   0  0  0  0  0  0  0  0  0  0  0  0
   -1.6726   -2.2303    0.5112 H   0  0  0  0  0  0  0  0  0  0  0  0
  1  2  2  0
  2  3  1  0
  3  4  1  0
  4  5  1  0
  5  6  1  0
  6  7  1  0
  7  8  1  0
  8  9  1  0
  7  2  1  0
  8  5  1  0
  3 10  1  0
  3 11  1  0
  5 12  1  0
  6 13  1  0
  6 14  1  0
  7 15  1  0
  8 16  1  0
  9 17  1  0
M  END
