
     RDKit          3D

 15 16  0  0  0  0  0  0  0  0999 V2000
   -1.0108    1.4858   -1.6450 O   0  0  0  0  0  0  0  0  0  0  0  0
   -0.6942    0.7222   -0.7818 C   0  0  0  0  0  0  0  0  0  0  0  0
   -1.1813   -0.5785   -0.2876 C   0  0  0  0  0  0  0  0  0  0  0  0
   -2.2431   -0.3909    0.6185 O   0  0  0  0  0  0  0  0  0  0  0  0
    0.0872   -0.8524    0.4379 C   0  0  0  0  0  0  0  0  0  0  0  0
    1.3983   -0.3468    0.0090 C   0  0  0  0  0  0  0  0  0  0  0  0
    1.8390   -0.5400   -1.3081 O   0  0  0  0  0  0  0  0  0  0  0  0
    0.3506    0.6697    0.2507 C   0  0  0  0  0  0  0  0  0  0  0  0
    0.2541    1.3915    1.4071 O   0  0  0  0  0  0  0  0  0  0  0  0
   -1.4872   -1.2928   -1.0720 H   0  0  0  0  0  0  0  0  0  0  0  0
   -2.5913    0.5249    0.5511 H   0  0  0  0  0  0  0  0  0  0  0  0
    0.0042   -1.2230    1.4651 H   0  0  0  0  0  0  0  0  0  0  0  0
    2.2207   -0.3621    0.7426 H   0  0  0  0  0  0  0  0  0  0  0  0
    2.2904   -1.4294   -1.3661 H   0  0  0  0  0  0  0  0  0  0  0  0
    0.7633    2.2218    1.4317 H   0  0  0  0  0  0  0  0  0  0  0  0
  1  2  2  0
  2  3  1  0
  3  4  1  0
  3  5  1  0
  5  6  1  0
  6  7  1  0
  6  8  1  0
  8  9  1  0
  8  2  1  0
  8  5  1  0
  3 10  1  0
  4 11  1  0
  5 12  1  0
  6 13  1  0
  7 14  1  0
  9 15  1  0
M  END
