
     RDKit          3D

 15 17  0  0  0  0  0  0  0  0999 V2000
   -1.8466    1.1390   -1.4495 O   0  0  0  0  0  0  0  0  0  0  0  0
   -1.1555    0.5796   -0.6554 C   0  0  0  0  0  0  0  0  0  0  0  0
   -0.7572    1.0497    0.6877 C   0  0  0  0  0  0  0  0  0  0  0  0
    0.5886    1.4029    0.7508 O   0  0  0  0  0  0  0  0  0  0  0  0
    1.4082    0.5504    0.0430 C   0  0  0  0  0  0  0  0  0  0  0  0
    0.8262   -0.8249   -0.1619 C   0  0  0  0  0  0  0  0  0  0  0  0
   -0.3476   -1.1328    0.6391 C   0  0  0  0  0  0  0  0  0  0  0  0
   -0.8600   -0.1257    1.4319 O   0  0  0  0  0  0  0  0  0  0  0  0
   -0.5075   -0.7426   -0.8020 C   0  0  0  0  0  0  0  0  0  0  0  0
   -1.3460    1.8687    1.0878 H   0  0  0  0  0  0  0  0  0  0  0  0
    1.5591    0.9927   -0.9650 H   0  0  0  0  0  0  0  0  0  0  0  0
    2.4311    0.4840    0.4971 H   0  0  0  0  0  0  0  0  0  0  0  0
    1.4905   -1.6152   -0.4891 H   0  0  0  0  0  0  0  0  0  0  0  0
   -0.6184   -2.1521    0.9192 H   0  0  0  0  0  0  0  0  0  0  0  0
   -0.8648   -1.4739   -1.5337 H   0  0  0  0  0  0  0  0  0  0  0  0
  1  2  2  0
  2  3  1  0
  3  4  1  0
  4  5  1  0
  5  6  1  0
  6  7  1  0
  7  8  1  0
  7  9  1  0
  9  2  1  0
  8  3  1  0
  9  6  1  0
  3 10  1  0
  5 11  1  0
  5 12  1  0
  6 13  1  0
  7 14  1  0
  9 15  1  0
M  END
