
     RDKit          3D

 15 17  0  0  0  0  0  0  0  0999 V2000
   -0.4140    2.5408   -0.1005 O   0  0  0  0  0  0  0  0  0  0  0  0
   -0.3444    1.3309   -0.1802 C   0  0  0  0  0  0  0  0  0  0  0  0
    0.5409    0.4650   -1.0015 C   0  0  0  0  0  0  0  0  0  0  0  0
    1.5666   -0.1521   -0.0646 C   0  0  0  0  0  0  0  0  0  0  0  0
    0.9730   -0.5363    1.1056 O   0  0  0  0  0  0  0  0  0  0  0  0
   -0.3703   -0.7355    1.0669 C   0  0  0  0  0  0  0  0  0  0  0  0
   -1.0195   -0.8956   -0.2142 C   0  0  0  0  0  0  0  0  0  0  0  0
   -0.3331   -0.5746   -1.3440 O   0  0  0  0  0  0  0  0  0  0  0  0
   -1.1898    0.3777    0.5807 C   0  0  0  0  0  0  0  0  0  0  0  0
    0.9775    0.9595   -1.8622 H   0  0  0  0  0  0  0  0  0  0  0  0
    2.0031   -1.0162   -0.6255 H   0  0  0  0  0  0  0  0  0  0  0  0
    2.4186    0.5380    0.1230 H   0  0  0  0  0  0  0  0  0  0  0  0
   -0.7647   -1.3646    1.9142 H   0  0  0  0  0  0  0  0  0  0  0  0
   -1.8691   -1.5811   -0.3366 H   0  0  0  0  0  0  0  0  0  0  0  0
   -2.1746    0.6441    0.9389 H   0  0  0  0  0  0  0  0  0  0  0  0
  1  2  2  0
  2  3  1  0
  3  4  1  0
  4  5  1  0
  5  6  1  0
  6  7  1  0
  7  8  1  0
  7  9  1  0
  9  2  1  0
  8  3  1  0
  9  6  1  0
  3 10  1  0
  4 11  1  0
  4 12  1  0
  6 13  1  0
  7 14  1  0
  9 15  1  0
M  END
