
     RDKit          3D

 17 18  0  0  0  0  0  0  0  0999 V2000
   -2.4486    1.8248   -1.3496 O   0  0  0  0  0  0  0  0  0  0  0  0
   -1.6350    0.9655   -1.0001 C   0  0  0  0  0  0  0  0  0  0  0  0
   -0.4393    0.5037   -1.5180 O   0  0  0  0  0  0  0  0  0  0  0  0
   -0.0958    0.0766   -0.2419 C   0  0  0  0  0  0  0  0  0  0  0  0
    0.8030   -1.0652   -0.0693 C   0  0  0  0  0  0  0  0  0  0  0  0
    1.9353   -0.0477    0.1590 C   0  0  0  0  0  0  0  0  0  0  0  0
    0.8237    0.9331    0.5602 C   0  0  0  0  0  0  0  0  0  0  0  0
   -1.5116    0.0084    0.1177 C   0  0  0  0  0  0  0  0  0  0  0  0
   -2.2037   -1.1586   -0.1215 O   0  0  0  0  0  0  0  0  0  0  0  0
    0.9892   -1.7477   -0.8969 H   0  0  0  0  0  0  0  0  0  0  0  0
    0.6379   -1.5641    0.9321 H   0  0  0  0  0  0  0  0  0  0  0  0
    2.3686    0.3291   -0.7944 H   0  0  0  0  0  0  0  0  0  0  0  0
    2.6303   -0.3078    0.9528 H   0  0  0  0  0  0  0  0  0  0  0  0
    0.9698    1.9579    0.2187 H   0  0  0  0  0  0  0  0  0  0  0  0
    0.6261    0.7980    1.6467 H   0  0  0  0  0  0  0  0  0  0  0  0
   -1.7297    0.3925    1.1227 H   0  0  0  0  0  0  0  0  0  0  0  0
   -1.7203   -1.8986    0.2818 H   0  0  0  0  0  0  0  0  0  0  0  0
  1  2  2  0
  2  3  1  0
  3  4  1  0
  4  5  1  0
  5  6  1  0
  6  7  1  0
  4  8  1  0
  8  9  1  0
  8  2  1  0
  7  4  1  0
  5 10  1  0
  5 11  1  0
  6 12  1  0
  6 13  1  0
  7 14  1  0
  7 15  1  0
  8 16  1  0
  9 17  1  0
M  END
