
     RDKit          3D

 15 17  0  0  0  0  0  0  0  0999 V2000
    1.1327    1.9664   -1.2842 O   0  0  0  0  0  0  0  0  0  0  0  0
    0.9766    0.8799   -0.7681 C   0  0  0  0  0  0  0  0  0  0  0  0
    1.8189    0.0072    0.0481 C   0  0  0  0  0  0  0  0  0  0  0  0
    2.1098   -0.0802    1.3107 O   0  0  0  0  0  0  0  0  0  0  0  0
    0.8169    0.0854    1.2474 C   0  0  0  0  0  0  0  0  0  0  0  0
   -0.2787   -0.5971    0.5281 C   0  0  0  0  0  0  0  0  0  0  0  0
   -1.4380    0.2805   -0.0136 C   0  0  0  0  0  0  0  0  0  0  0  0
   -2.6040   -0.3641   -0.3618 O   0  0  0  0  0  0  0  0  0  0  0  0
   -0.2917    0.1021   -0.8786 C   0  0  0  0  0  0  0  0  0  0  0  0
    1.8712   -1.0118   -0.4558 H   0  0  0  0  0  0  0  0  0  0  0  0
    0.5297    1.1379    1.5620 H   0  0  0  0  0  0  0  0  0  0  0  0
   -0.4487   -1.6678    0.5521 H   0  0  0  0  0  0  0  0  0  0  0  0
   -1.4991    1.2530    0.5450 H   0  0  0  0  0  0  0  0  0  0  0  0
   -2.4345   -1.3497   -0.3303 H   0  0  0  0  0  0  0  0  0  0  0  0
   -0.2610   -0.6417   -1.7009 H   0  0  0  0  0  0  0  0  0  0  0  0
  1  2  2  0
  2  3  1  0
  3  4  1  0
  4  5  1  0
  5  6  1  0
  6  7  1  0
  7  8  1  0
  7  9  1  0
  9  2  1  0
  5  3  1  0
  9  6  1  0
  3 10  1  0
  5 11  1  0
  6 12  1  0
  7 13  1  0
  8 14  1  0
  9 15  1  0
M  END
