
     RDKit          3D

 15 16  0  0  0  0  0  0  0  0999 V2000
    0.0545    2.7340   -0.7105 O   0  0  0  0  0  0  0  0  0  0  0  0
    0.3894    1.5622   -0.3965 C   0  0  0  0  0  0  0  0  0  0  0  0
    1.6785    1.0617   -0.6206 O   0  0  0  0  0  0  0  0  0  0  0  0
    1.8747   -0.2999   -0.2202 C   0  0  0  0  0  0  0  0  0  0  0  0
    0.7246   -1.0146   -0.5772 O   0  0  0  0  0  0  0  0  0  0  0  0
   -0.2498   -0.7280    0.3429 C   0  0  0  0  0  0  0  0  0  0  0  0
   -1.6781   -0.8772   -0.1099 C   0  0  0  0  0  0  0  0  0  0  0  0
   -1.5866    0.3427   -0.7436 O   0  0  0  0  0  0  0  0  0  0  0  0
   -0.6307    0.7095    0.2272 C   0  0  0  0  0  0  0  0  0  0  0  0
    2.7851   -0.7006   -0.6937 H   0  0  0  0  0  0  0  0  0  0  0  0
    2.0129   -0.2680    0.8841 H   0  0  0  0  0  0  0  0  0  0  0  0
   -0.0471   -1.0787    1.3630 H   0  0  0  0  0  0  0  0  0  0  0  0
   -1.9122   -1.7503   -0.7153 H   0  0  0  0  0  0  0  0  0  0  0  0
   -2.3497   -0.7656    0.7914 H   0  0  0  0  0  0  0  0  0  0  0  0
   -1.0654    1.0727    1.1788 H   0  0  0  0  0  0  0  0  0  0  0  0
  1  2  2  0
  2  3  1  0
  3  4  1  0
  4  5  1  0
  5  6  1  0
  6  7  1  0
  7  8  1  0
  8  9  1  0
  9  2  1  0
  9  6  1  0
  4 10  1  0
  4 11  1  0
  6 12  1  0
  7 13  1  0
  7 14  1  0
  9 15  1  0
M  END
