
     RDKit          3D

 19 20  0  0  0  0  0  0  0  0999 V2000
    2.6295    0.2144    1.5528 O   0  0  0  0  0  0  0  0  0  0  0  0
    1.5323    0.0223    0.9777 C   0  0  0  0  0  0  0  0  0  0  0  0
    1.5560   -0.6895   -0.3268 C   0  0  0  0  0  0  0  0  0  0  0  0
    0.1379   -0.5362   -0.8837 C   0  0  0  0  0  0  0  0  0  0  0  0
   -0.1578    0.9502   -0.9254 C   0  0  0  0  0  0  0  0  0  0  0  0
   -1.3274    1.1113    0.0246 C   0  0  0  0  0  0  0  0  0  0  0  0
   -0.9205    0.1275    1.1015 C   0  0  0  0  0  0  0  0  0  0  0  0
   -0.7670   -1.1074    0.2023 C   0  0  0  0  0  0  0  0  0  0  0  0
    0.3638    0.4757    1.5754 O   0  0  0  0  0  0  0  0  0  0  0  0
    2.2225   -0.2041   -1.0669 H   0  0  0  0  0  0  0  0  0  0  0  0
    1.8263   -1.7590   -0.2090 H   0  0  0  0  0  0  0  0  0  0  0  0
    0.0139   -1.0357   -1.8392 H   0  0  0  0  0  0  0  0  0  0  0  0
    0.6755    1.5569   -0.4855 H   0  0  0  0  0  0  0  0  0  0  0  0
   -0.4035    1.2943   -1.9492 H   0  0  0  0  0  0  0  0  0  0  0  0
   -1.4408    2.1370    0.3929 H   0  0  0  0  0  0  0  0  0  0  0  0
   -2.2205    0.7072   -0.4888 H   0  0  0  0  0  0  0  0  0  0  0  0
   -1.6635   -0.0185    1.8766 H   0  0  0  0  0  0  0  0  0  0  0  0
   -1.7368   -1.2976   -0.2569 H   0  0  0  0  0  0  0  0  0  0  0  0
   -0.3199   -1.9487    0.7276 H   0  0  0  0  0  0  0  0  0  0  0  0
  1  2  2  0
  2  3  1  0
  3  4  1  0
  4  5  1  0
  5  6  1  0
  6  7  1  0
  7  8  1  0
  7  9  1  0
  9  2  1  0
  8  4  1  0
  3 10  1  0
  3 11  1  0
  4 12  1  0
  5 13  1  0
  5 14  1  0
  6 15  1  0
  6 16  1  0
  7 17  1  0
  8 18  1  0
  8 19  1  0
M  END
