
     RDKit          3D

 13 15  0  0  0  0  0  0  0  0999 V2000
    2.7442    0.2619   -0.9356 O   0  0  0  0  0  0  0  0  0  0  0  0
    1.8103   -0.0394   -0.1221 C   0  0  0  0  0  0  0  0  0  0  0  0
    1.1488   -1.2430    0.0456 O   0  0  0  0  0  0  0  0  0  0  0  0
   -0.1492   -0.9366    0.4458 C   0  0  0  0  0  0  0  0  0  0  0  0
   -0.1075    0.4824    0.9201 C   0  0  0  0  0  0  0  0  0  0  0  0
    1.2417    0.8222    0.8046 O   0  0  0  0  0  0  0  0  0  0  0  0
   -0.8614    0.8705   -0.3461 C   0  0  0  0  0  0  0  0  0  0  0  0
   -2.1065    0.3108   -0.4924 O   0  0  0  0  0  0  0  0  0  0  0  0
   -0.9562   -0.4216   -0.7477 C   0  0  0  0  0  0  0  0  0  0  0  0
   -0.6747   -1.6644    1.0712 H   0  0  0  0  0  0  0  0  0  0  0  0
   -0.6184    0.7131    1.8580 H   0  0  0  0  0  0  0  0  0  0  0  0
   -0.5989    1.8176   -0.8270 H   0  0  0  0  0  0  0  0  0  0  0  0
   -0.8721   -0.9736   -1.6745 H   0  0  0  0  0  0  0  0  0  0  0  0
  1  2  2  0
  2  3  1  0
  3  4  1  0
  4  5  1  0
  5  6  1  0
  5  7  1  0
  7  8  1  0
  8  9  1  0
  6  2  1  0
  9  7  1  0
  9  4  1  0
  4 10  1  0
  5 11  1  0
  7 12  1  0
  9 13  1  0
M  END
