
     RDKit          3D

 17 19  0  0  0  0  0  0  0  0999 V2000
    1.8817   -1.9253    0.0138 O   0  0  0  0  0  0  0  0  0  0  0  0
    1.4174   -0.8590   -0.1988 C   0  0  0  0  0  0  0  0  0  0  0  0
    2.1733    0.4543   -0.0118 C   0  0  0  0  0  0  0  0  0  0  0  0
    1.0431    1.3818    0.4249 C   0  0  0  0  0  0  0  0  0  0  0  0
   -0.1239    0.8555    0.1387 C   0  0  0  0  0  0  0  0  0  0  0  0
   -1.5689    0.5246   -0.0540 C   0  0  0  0  0  0  0  0  0  0  0  0
   -2.0361   -0.5440    0.8759 C   0  0  0  0  0  0  0  0  0  0  0  0
   -1.1648   -0.9892   -0.2352 C   0  0  0  0  0  0  0  0  0  0  0  0
    0.1179   -0.4349   -0.6603 C   0  0  0  0  0  0  0  0  0  0  0  0
    2.5587    0.8411   -0.9634 H   0  0  0  0  0  0  0  0  0  0  0  0
    2.8857    0.3142    0.7953 H   0  0  0  0  0  0  0  0  0  0  0  0
    1.2749    2.3234    0.8974 H   0  0  0  0  0  0  0  0  0  0  0  0
   -2.1526    0.9363   -0.8654 H   0  0  0  0  0  0  0  0  0  0  0  0
   -3.1122   -0.7755    0.7938 H   0  0  0  0  0  0  0  0  0  0  0  0
   -1.6064   -0.4421    1.9087 H   0  0  0  0  0  0  0  0  0  0  0  0
   -1.7247   -1.5073   -1.0886 H   0  0  0  0  0  0  0  0  0  0  0  0
    0.1368   -0.1537   -1.7711 H   0  0  0  0  0  0  0  0  0  0  0  0
  1  2  2  0
  2  3  1  0
  3  4  1  0
  4  5  2  0
  5  6  1  0
  6  7  1  0
  7  8  1  0
  8  9  1  0
  9  2  1  0
  9  5  1  0
  8  6  1  0
  3 10  1  0
  3 11  1  0
  4 12  1  0
  6 13  1  0
  7 14  1  0
  7 15  1  0
  8 16  1  0
  9 17  1  0
M  END
