
     RDKit          3D

 17 18  0  0  0  0  0  0  0  0999 V2000
    1.7758    2.1369   -0.3580 O   0  0  0  0  0  0  0  0  0  0  0  0
    1.2578    1.0535   -0.1453 C   0  0  0  0  0  0  0  0  0  0  0  0
    1.4930   -0.3682   -0.5192 C   0  0  0  0  0  0  0  0  0  0  0  0
    0.2357   -0.7187    0.2444 C   0  0  0  0  0  0  0  0  0  0  0  0
    0.4154   -1.6476    1.2305 O   0  0  0  0  0  0  0  0  0  0  0  0
   -0.9851   -0.9600   -0.6192 C   0  0  0  0  0  0  0  0  0  0  0  0
   -1.9350   -0.1513    0.0488 O   0  0  0  0  0  0  0  0  0  0  0  0
   -1.2610    1.0784    0.0021 C   0  0  0  0  0  0  0  0  0  0  0  0
    0.0496    0.7098    0.6673 C   0  0  0  0  0  0  0  0  0  0  0  0
    2.3891   -0.8283   -0.0690 H   0  0  0  0  0  0  0  0  0  0  0  0
    1.3768   -0.5242   -1.6206 H   0  0  0  0  0  0  0  0  0  0  0  0
    0.1107   -1.3806    2.1188 H   0  0  0  0  0  0  0  0  0  0  0  0
   -1.2736   -2.0118   -0.6118 H   0  0  0  0  0  0  0  0  0  0  0  0
   -0.8410   -0.5467   -1.6250 H   0  0  0  0  0  0  0  0  0  0  0  0
   -1.1196    1.4005   -1.0520 H   0  0  0  0  0  0  0  0  0  0  0  0
   -1.7972    1.8253    0.5804 H   0  0  0  0  0  0  0  0  0  0  0  0
    0.1086    0.9330    1.7279 H   0  0  0  0  0  0  0  0  0  0  0  0
  1  2  2  0
  2  3  1  0
  3  4  1  0
  4  5  1  0
  4  6  1  0
  6  7  1  0
  7  8  1  0
  8  9  1  0
  9  2  1  0
  9  4  1  0
  3 10  1  0
  3 11  1  0
  5 12  1  0
  6 13  1  0
  6 14  1  0
  8 15  1  0
  8 16  1  0
  9 17  1  0
M  END
