
     RDKit          3D

 17 17  0  0  0  0  0  0  0  0999 V2000
   -0.9835   -2.3422    0.9187 O   0  0  0  0  0  0  0  0  0  0  0  0
   -0.3674   -1.4103    0.2993 C   0  0  0  0  0  0  0  0  0  0  0  0
    0.9949   -1.4565    0.5323 O   0  0  0  0  0  0  0  0  0  0  0  0
    1.9379   -0.4956    0.1562 C   0  0  0  0  0  0  0  0  0  0  0  0
    1.3954    0.8403    0.5659 C   0  0  0  0  0  0  0  0  0  0  0  0
    0.2440    1.3410    0.1158 C   0  0  0  0  0  0  0  0  0  0  0  0
   -0.7372    0.7866   -0.8224 C   0  0  0  0  0  0  0  0  0  0  0  0
   -1.2596   -0.5561   -0.4799 C   0  0  0  0  0  0  0  0  0  0  0  0
   -2.4618   -0.4345    0.2537 O   0  0  0  0  0  0  0  0  0  0  0  0
    2.0480   -0.4905   -0.9325 H   0  0  0  0  0  0  0  0  0  0  0  0
    2.9224   -0.6637    0.6716 H   0  0  0  0  0  0  0  0  0  0  0  0
    1.9738    1.4077    1.2550 H   0  0  0  0  0  0  0  0  0  0  0  0
    0.0373    2.3190    0.5371 H   0  0  0  0  0  0  0  0  0  0  0  0
   -1.6141    1.4896   -0.8825 H   0  0  0  0  0  0  0  0  0  0  0  0
   -0.3298    0.7393   -1.8703 H   0  0  0  0  0  0  0  0  0  0  0  0
   -1.5418   -1.1049   -1.4074 H   0  0  0  0  0  0  0  0  0  0  0  0
   -2.2586    0.0308    1.0893 H   0  0  0  0  0  0  0  0  0  0  0  0
  1  2  2  0
  2  3  1  0
  3  4  1  0
  4  5  1  0
  5  6  2  0
  6  7  1  0
  7  8  1  0
  8  9  1  0
  8  2  1  0
  4 10  1  0
  4 11  1  0
  5 12  1  0
  6 13  1  0
  7 14  1  0
  7 15  1  0
  8 16  1  0
  9 17  1  0
M  END
