
     RDKit          3D

 19 20  0  0  0  0  0  0  0  0999 V2000
   -1.7221   -1.8471    1.6535 O   0  0  0  0  0  0  0  0  0  0  0  0
   -1.1607   -1.1534    0.7663 C   0  0  0  0  0  0  0  0  0  0  0  0
   -1.9771   -0.1667    0.0302 C   0  0  0  0  0  0  0  0  0  0  0  0
   -1.1314    0.9711   -0.5153 C   0  0  0  0  0  0  0  0  0  0  0  0
    0.1617    1.1211    0.2531 C   0  0  0  0  0  0  0  0  0  0  0  0
    1.2539    0.4235   -0.5260 C   0  0  0  0  0  0  0  0  0  0  0  0
    2.3119   -0.2781    0.2432 C   0  0  0  0  0  0  0  0  0  0  0  0
    1.1392   -1.0354   -0.3446 C   0  0  0  0  0  0  0  0  0  0  0  0
    0.1744   -1.4262    0.6085 O   0  0  0  0  0  0  0  0  0  0  0  0
   -2.7863    0.1809    0.6872 H   0  0  0  0  0  0  0  0  0  0  0  0
   -2.4807   -0.7277   -0.8030 H   0  0  0  0  0  0  0  0  0  0  0  0
   -0.9488    0.7397   -1.5991 H   0  0  0  0  0  0  0  0  0  0  0  0
   -1.7118    1.8913   -0.3979 H   0  0  0  0  0  0  0  0  0  0  0  0
    0.4195    2.1758    0.3494 H   0  0  0  0  0  0  0  0  0  0  0  0
    0.0810    0.5872    1.2333 H   0  0  0  0  0  0  0  0  0  0  0  0
    1.4740    0.8095   -1.5360 H   0  0  0  0  0  0  0  0  0  0  0  0
    3.2705   -0.5266   -0.2122 H   0  0  0  0  0  0  0  0  0  0  0  0
    2.3363   -0.0765    1.3341 H   0  0  0  0  0  0  0  0  0  0  0  0
    1.2966   -1.6623   -1.2247 H   0  0  0  0  0  0  0  0  0  0  0  0
  1  2  2  0
  2  3  1  0
  3  4  1  0
  4  5  1  0
  5  6  1  0
  6  7  1  0
  7  8  1  0
  8  9  1  0
  9  2  1  0
  8  6  1  0
  3 10  1  0
  3 11  1  0
  4 12  1  0
  4 13  1  0
  5 14  1  0
  5 15  1  0
  6 16  1  0
  7 17  1  0
  7 18  1  0
  8 19  1  0
M  END
