
     RDKit          3D

 19 20  0  0  0  0  0  0  0  0999 V2000
    0.2285    2.4247    1.0123 O   0  0  0  0  0  0  0  0  0  0  0  0
    0.1161    1.3191    0.5171 C   0  0  0  0  0  0  0  0  0  0  0  0
    1.3053    0.4393    0.5224 C   0  0  0  0  0  0  0  0  0  0  0  0
    2.2907    1.1038   -0.2434 O   0  0  0  0  0  0  0  0  0  0  0  0
    1.0915   -0.9133   -0.0106 C   0  0  0  0  0  0  0  0  0  0  0  0
   -0.0171   -1.1322   -0.9403 C   0  0  0  0  0  0  0  0  0  0  0  0
   -1.2409   -0.3255   -0.7750 C   0  0  0  0  0  0  0  0  0  0  0  0
   -1.8799   -0.2303    0.5896 C   0  0  0  0  0  0  0  0  0  0  0  0
   -1.1808    0.9211   -0.0536 C   0  0  0  0  0  0  0  0  0  0  0  0
    1.6542    0.3961    1.5943 H   0  0  0  0  0  0  0  0  0  0  0  0
    2.7218    1.7917    0.3102 H   0  0  0  0  0  0  0  0  0  0  0  0
    2.0443   -1.2416   -0.5262 H   0  0  0  0  0  0  0  0  0  0  0  0
    1.0087   -1.6354    0.8557 H   0  0  0  0  0  0  0  0  0  0  0  0
   -0.3266   -2.2180   -0.8709 H   0  0  0  0  0  0  0  0  0  0  0  0
    0.3384   -1.0234   -2.0043 H   0  0  0  0  0  0  0  0  0  0  0  0
   -1.9436   -0.3729   -1.6524 H   0  0  0  0  0  0  0  0  0  0  0  0
   -1.3692   -0.7924    1.4164 H   0  0  0  0  0  0  0  0  0  0  0  0
   -2.9874   -0.2634    0.6242 H   0  0  0  0  0  0  0  0  0  0  0  0
   -1.8542    1.7526   -0.3654 H   0  0  0  0  0  0  0  0  0  0  0  0
  1  2  2  0
  2  3  1  0
  3  4  1  0
  3  5  1  0
  5  6  1  0
  6  7  1  0
  7  8  1  0
  8  9  1  0
  9  2  1  0
  9  7  1  0
  3 10  1  0
  4 11  1  0
  5 12  1  0
  5 13  1  0
  6 14  1  0
  6 15  1  0
  7 16  1  0
  8 17  1  0
  8 18  1  0
  9 19  1  0
M  END
