
     RDKit          3D

 17 18  0  0  0  0  0  0  0  0999 V2000
   -1.9147    0.3645    1.9895 O   0  0  0  0  0  0  0  0  0  0  0  0
   -1.4215    0.1820    0.9388 C   0  0  0  0  0  0  0  0  0  0  0  0
   -1.1852   -1.0643    0.1766 C   0  0  0  0  0  0  0  0  0  0  0  0
   -0.5297   -0.3944   -1.0216 C   0  0  0  0  0  0  0  0  0  0  0  0
   -1.4091    0.7016   -1.2117 O   0  0  0  0  0  0  0  0  0  0  0  0
   -0.8582    1.1803    0.0083 C   0  0  0  0  0  0  0  0  0  0  0  0
    0.4362    0.6280   -0.4984 C   0  0  0  0  0  0  0  0  0  0  0  0
    1.4335    0.1683    0.4969 C   0  0  0  0  0  0  0  0  0  0  0  0
    2.2090   -0.8471   -0.1103 O   0  0  0  0  0  0  0  0  0  0  0  0
   -0.5461   -1.7888    0.6718 H   0  0  0  0  0  0  0  0  0  0  0  0
   -2.1359   -1.5323   -0.1848 H   0  0  0  0  0  0  0  0  0  0  0  0
   -0.2863   -0.9840   -1.8737 H   0  0  0  0  0  0  0  0  0  0  0  0
   -0.9617    2.2182    0.2090 H   0  0  0  0  0  0  0  0  0  0  0  0
    0.8498    1.2230   -1.3029 H   0  0  0  0  0  0  0  0  0  0  0  0
    2.1480    0.9869    0.7109 H   0  0  0  0  0  0  0  0  0  0  0  0
    1.0222   -0.2534    1.4164 H   0  0  0  0  0  0  0  0  0  0  0  0
    3.1497   -0.7885    0.2107 H   0  0  0  0  0  0  0  0  0  0  0  0
  1  2  2  0
  2  3  1  0
  3  4  1  0
  4  5  1  0
  5  6  1  0
  6  7  1  0
  7  8  1  0
  8  9  1  0
  6  2  1  0
  7  4  1  0
  3 10  1  0
  3 11  1  0
  4 12  1  0
  6 13  1  0
  7 14  1  0
  8 15  1  0
  8 16  1  0
  9 17  1  0
M  END
