
     RDKit          3D

 15 15  0  0  0  0  0  0  0  0999 V2000
   -2.7544    1.7949   -0.0248 O   0  0  0  0  0  0  0  0  0  0  0  0
   -1.7745    1.0091   -0.0343 C   0  0  0  0  0  0  0  0  0  0  0  0
   -0.4342    1.1851    0.4766 C   0  0  0  0  0  0  0  0  0  0  0  0
    0.3183    0.1245    0.2778 C   0  0  0  0  0  0  0  0  0  0  0  0
    1.7736   -0.0061    0.6977 C   0  0  0  0  0  0  0  0  0  0  0  0
    2.5663   -0.2350   -0.4416 O   0  0  0  0  0  0  0  0  0  0  0  0
   -0.4732   -0.9038   -0.4109 C   0  0  0  0  0  0  0  0  0  0  0  0
   -1.8072   -0.3221   -0.6024 C   0  0  0  0  0  0  0  0  0  0  0  0
   -2.8187   -0.8825   -1.1669 O   0  0  0  0  0  0  0  0  0  0  0  0
   -0.0748    2.1020    0.9778 H   0  0  0  0  0  0  0  0  0  0  0  0
    2.0762    0.9475    1.1077 H   0  0  0  0  0  0  0  0  0  0  0  0
    1.8525   -0.8777    1.3418 H   0  0  0  0  0  0  0  0  0  0  0  0
    2.1886   -0.9256   -1.0243 H   0  0  0  0  0  0  0  0  0  0  0  0
   -0.6262   -1.8133    0.2226 H   0  0  0  0  0  0  0  0  0  0  0  0
   -0.0124   -1.1971   -1.3969 H   0  0  0  0  0  0  0  0  0  0  0  0
  1  2  2  0
  2  3  1  0
  3  4  2  0
  4  5  1  0
  5  6  1  0
  4  7  1  0
  7  8  1  0
  8  9  2  0
  8  2  1  0
  3 10  1  0
  5 11  1  0
  5 12  1  0
  6 13  1  0
  7 14  1  0
  7 15  1  0
M  END
