
     RDKit          3D

 19 20  0  0  0  0  0  0  0  0999 V2000
   -3.8145    0.5901   -0.6639 O   0  0  0  0  0  0  0  0  0  0  0  0
   -2.6516    0.3322   -0.4410 C   0  0  0  0  0  0  0  0  0  0  0  0
   -1.9128   -0.5246    0.5538 C   0  0  0  0  0  0  0  0  0  0  0  0
   -0.7213   -0.4502   -0.3923 C   0  0  0  0  0  0  0  0  0  0  0  0
    0.5295   -0.1561    0.4267 C   0  0  0  0  0  0  0  0  0  0  0  0
    1.7520   -0.0684   -0.4481 C   0  0  0  0  0  0  0  0  0  0  0  0
    3.0259    0.2211    0.3010 C   0  0  0  0  0  0  0  0  0  0  0  0
    2.7258   -1.0802   -0.3519 O   0  0  0  0  0  0  0  0  0  0  0  0
   -1.3425    0.7426   -1.0530 C   0  0  0  0  0  0  0  0  0  0  0  0
   -2.3346   -1.5199    0.7041 H   0  0  0  0  0  0  0  0  0  0  0  0
   -1.7826    0.0712    1.4902 H   0  0  0  0  0  0  0  0  0  0  0  0
   -0.6390   -1.3271   -1.0406 H   0  0  0  0  0  0  0  0  0  0  0  0
    0.6625   -1.0494    1.0933 H   0  0  0  0  0  0  0  0  0  0  0  0
    0.3786    0.7231    1.0481 H   0  0  0  0  0  0  0  0  0  0  0  0
    1.6751    0.3456   -1.4624 H   0  0  0  0  0  0  0  0  0  0  0  0
    3.8894    0.6627   -0.2003 H   0  0  0  0  0  0  0  0  0  0  0  0
    3.0336    0.0479    1.4058 H   0  0  0  0  0  0  0  0  0  0  0  0
   -1.0515    1.7339   -0.6440 H   0  0  0  0  0  0  0  0  0  0  0  0
   -1.4220    0.7054   -2.1607 H   0  0  0  0  0  0  0  0  0  0  0  0
  1  2  2  0
  2  3  1  0
  3  4  1  0
  4  5  1  0
  5  6  1  0
  6  7  1  0
  7  8  1  0
  4  9  1  0
  9  2  1  0
  8  6  1  0
  3 10  1  0
  3 11  1  0
  4 12  1  0
  5 13  1  0
  5 14  1  0
  6 15  1  0
  7 16  1  0
  7 17  1  0
  9 18  1  0
  9 19  1  0
M  END
