
     RDKit          3D

 19 20  0  0  0  0  0  0  0  0999 V2000
    0.0813   -1.9544   -1.4812 O   0  0  0  0  0  0  0  0  0  0  0  0
   -0.2431   -1.0533   -0.7490 C   0  0  0  0  0  0  0  0  0  0  0  0
   -1.5202   -0.3239   -0.6025 C   0  0  0  0  0  0  0  0  0  0  0  0
   -1.0480    1.1197   -0.5297 C   0  0  0  0  0  0  0  0  0  0  0  0
   -0.3784    0.6538    0.7592 C   0  0  0  0  0  0  0  0  0  0  0  0
   -1.6265   -0.2281    0.9267 C   0  0  0  0  0  0  0  0  0  0  0  0
    0.6119   -0.3615    0.2989 C   0  0  0  0  0  0  0  0  0  0  0  0
    1.8521    0.2108   -0.3355 C   0  0  0  0  0  0  0  0  0  0  0  0
    2.5520   -0.8608   -0.9044 O   0  0  0  0  0  0  0  0  0  0  0  0
   -2.3735   -0.5737   -1.1555 H   0  0  0  0  0  0  0  0  0  0  0  0
   -0.3903    1.3422   -1.3670 H   0  0  0  0  0  0  0  0  0  0  0  0
   -1.8663    1.8478   -0.3188 H   0  0  0  0  0  0  0  0  0  0  0  0
   -0.1616    1.3568    1.5108 H   0  0  0  0  0  0  0  0  0  0  0  0
   -1.3297   -1.1520    1.4513 H   0  0  0  0  0  0  0  0  0  0  0  0
   -2.5021    0.3068    1.2838 H   0  0  0  0  0  0  0  0  0  0  0  0
    0.8283   -1.0797    1.0932 H   0  0  0  0  0  0  0  0  0  0  0  0
    1.5812    0.8782   -1.1771 H   0  0  0  0  0  0  0  0  0  0  0  0
    2.4548    0.8039    0.3614 H   0  0  0  0  0  0  0  0  0  0  0  0
    3.4780   -0.9326   -0.5587 H   0  0  0  0  0  0  0  0  0  0  0  0
  1  2  2  0
  2  3  1  0
  3  4  1  0
  4  5  1  0
  5  6  1  0
  5  7  1  0
  7  8  1  0
  8  9  1  0
  7  2  1  0
  6  3  1  0
  3 10  1  0
  4 11  1  0
  4 12  1  0
  5 13  1  0
  6 14  1  0
  6 15  1  0
  7 16  1  0
  8 17  1  0
  8 18  1  0
  9 19  1  0
M  END
