
     RDKit          3D

 15 17  0  0  0  0  0  0  0  0999 V2000
   -1.3262    2.2923    0.2934 O   0  0  0  0  0  0  0  0  0  0  0  0
   -0.6071    1.3422   -0.1171 C   0  0  0  0  0  0  0  0  0  0  0  0
    0.5626    1.4806   -0.8629 O   0  0  0  0  0  0  0  0  0  0  0  0
    1.4026    0.3702   -0.6519 C   0  0  0  0  0  0  0  0  0  0  0  0
    1.7168    0.0817    0.7714 C   0  0  0  0  0  0  0  0  0  0  0  0
    0.5919   -0.6334    0.1619 C   0  0  0  0  0  0  0  0  0  0  0  0
   -0.7821   -0.1019    0.0604 C   0  0  0  0  0  0  0  0  0  0  0  0
   -1.9922   -0.7366    0.1256 C   0  0  0  0  0  0  0  0  0  0  0  0
   -1.3907   -0.6531   -1.2060 O   0  0  0  0  0  0  0  0  0  0  0  0
    1.9392   -0.0961   -1.4854 H   0  0  0  0  0  0  0  0  0  0  0  0
    2.6405   -0.4943    0.9441 H   0  0  0  0  0  0  0  0  0  0  0  0
    1.5853    0.9075    1.5045 H   0  0  0  0  0  0  0  0  0  0  0  0
    0.7118   -1.7115   -0.0471 H   0  0  0  0  0  0  0  0  0  0  0  0
   -2.0945   -1.8227    0.4017 H   0  0  0  0  0  0  0  0  0  0  0  0
   -2.9579   -0.2249    0.1074 H   0  0  0  0  0  0  0  0  0  0  0  0
  1  2  2  0
  2  3  1  0
  3  4  1  0
  4  5  1  0
  5  6  1  0
  6  7  1  0
  7  8  1  0
  8  9  1  0
  7  2  1  0
  6  4  1  0
  9  7  1  0
  4 10  1  0
  5 11  1  0
  5 12  1  0
  6 13  1  0
  8 14  1  0
  8 15  1  0
M  END
