
     RDKit          3D

 17 18  0  0  0  0  0  0  0  0999 V2000
    0.1607   -0.9849    2.2280 O   0  0  0  0  0  0  0  0  0  0  0  0
    0.0562   -0.4862    1.1674 C   0  0  0  0  0  0  0  0  0  0  0  0
    0.0247    0.9440    0.8167 C   0  0  0  0  0  0  0  0  0  0  0  0
   -1.0280    0.9569   -0.2971 C   0  0  0  0  0  0  0  0  0  0  0  0
   -1.3513   -0.4782   -0.6239 C   0  0  0  0  0  0  0  0  0  0  0  0
   -0.0747   -1.1832   -0.1283 C   0  0  0  0  0  0  0  0  0  0  0  0
    0.9271   -0.7661   -1.0127 O   0  0  0  0  0  0  0  0  0  0  0  0
    1.8132    0.0750   -0.3589 C   0  0  0  0  0  0  0  0  0  0  0  0
    1.2414    1.2208    0.1562 O   0  0  0  0  0  0  0  0  0  0  0  0
   -0.1963    1.6278    1.6249 H   0  0  0  0  0  0  0  0  0  0  0  0
   -0.6469    1.4403   -1.2165 H   0  0  0  0  0  0  0  0  0  0  0  0
   -1.9149    1.5272    0.0307 H   0  0  0  0  0  0  0  0  0  0  0  0
   -2.1953   -0.8288    0.0298 H   0  0  0  0  0  0  0  0  0  0  0  0
   -1.5197   -0.6625   -1.6864 H   0  0  0  0  0  0  0  0  0  0  0  0
   -0.1924   -2.2580   -0.0670 H   0  0  0  0  0  0  0  0  0  0  0  0
    2.5883    0.3947   -1.1020 H   0  0  0  0  0  0  0  0  0  0  0  0
    2.3077   -0.5387    0.4390 H   0  0  0  0  0  0  0  0  0  0  0  0
  1  2  2  0
  2  3  1  0
  3  4  1  0
  4  5  1  0
  5  6  1  0
  6  7  1  0
  7  8  1  0
  8  9  1  0
  6  2  1  0
  9  3  1  0
  3 10  1  0
  4 11  1  0
  4 12  1  0
  5 13  1  0
  5 14  1  0
  6 15  1  0
  8 16  1  0
  8 17  1  0
M  END
