
     RDKit          3D

 16 18  0  0  0  0  0  0  0  0999 V2000
    0.1733   -1.6729    2.0174 O   0  0  0  0  0  0  0  0  0  0  0  0
    0.0975   -1.0967    0.9562 C   0  0  0  0  0  0  0  0  0  0  0  0
    1.2439   -0.6551    0.1500 C   0  0  0  0  0  0  0  0  0  0  0  0
    1.5265    0.7982    0.1501 C   0  0  0  0  0  0  0  0  0  0  0  0
    0.6937    0.2467   -0.9320 C   0  0  0  0  0  0  0  0  0  0  0  0
   -0.7903    0.1723   -0.8682 C   0  0  0  0  0  0  0  0  0  0  0  0
   -1.5863    0.7059    0.2460 C   0  0  0  0  0  0  0  0  0  0  0  0
   -1.1548   -0.7198    0.2549 C   0  0  0  0  0  0  0  0  0  0  0  0
    1.9704   -1.4060   -0.1683 H   0  0  0  0  0  0  0  0  0  0  0  0
    1.0740    1.4058    0.9883 H   0  0  0  0  0  0  0  0  0  0  0  0
    2.5378    1.1739   -0.1083 H   0  0  0  0  0  0  0  0  0  0  0  0
    1.1737    0.1676   -1.9288 H   0  0  0  0  0  0  0  0  0  0  0  0
   -1.3106    0.0848   -1.8578 H   0  0  0  0  0  0  0  0  0  0  0  0
   -1.1389    1.4402    0.9687 H   0  0  0  0  0  0  0  0  0  0  0  0
   -2.6534    0.8769    0.0852 H   0  0  0  0  0  0  0  0  0  0  0  0
   -1.8567   -1.5219    0.0467 H   0  0  0  0  0  0  0  0  0  0  0  0
  1  2  2  0
  2  3  1  0
  3  4  1  0
  4  5  1  0
  5  6  1  0
  6  7  1  0
  7  8  1  0
  8  2  1  0
  5  3  1  0
  8  6  1  0
  3  9  1  0
  4 10  1  0
  4 11  1  0
  5 12  1  0
  6 13  1  0
  7 14  1  0
  7 15  1  0
  8 16  1  0
M  END
