
     RDKit          3D

 19 20  0  0  0  0  0  0  0  0999 V2000
    1.1218    1.1387   -1.6928 O   0  0  0  0  0  0  0  0  0  0  0  0
    1.0100    0.3865   -0.7756 C   0  0  0  0  0  0  0  0  0  0  0  0
    1.9098   -0.4932    0.0512 C   0  0  0  0  0  0  0  0  0  0  0  0
    2.8642    0.2968    0.6762 O   0  0  0  0  0  0  0  0  0  0  0  0
    0.7353   -0.8851    0.9401 C   0  0  0  0  0  0  0  0  0  0  0  0
   -0.1128   -0.0859    0.0521 C   0  0  0  0  0  0  0  0  0  0  0  0
   -1.0386    0.9166    0.6102 C   0  0  0  0  0  0  0  0  0  0  0  0
   -2.0581    0.5040   -0.4509 C   0  0  0  0  0  0  0  0  0  0  0  0
   -1.1900   -0.7284   -0.7285 C   0  0  0  0  0  0  0  0  0  0  0  0
    2.2980   -1.3661   -0.5115 H   0  0  0  0  0  0  0  0  0  0  0  0
    2.9504    1.1891    0.2388 H   0  0  0  0  0  0  0  0  0  0  0  0
    0.5490   -1.9971    0.9457 H   0  0  0  0  0  0  0  0  0  0  0  0
    0.8788   -0.4742    1.9655 H   0  0  0  0  0  0  0  0  0  0  0  0
   -0.7387    1.9691    0.5821 H   0  0  0  0  0  0  0  0  0  0  0  0
   -1.4505    0.6694    1.6148 H   0  0  0  0  0  0  0  0  0  0  0  0
   -3.0425    0.2039   -0.0453 H   0  0  0  0  0  0  0  0  0  0  0  0
   -2.1415    1.2025   -1.2938 H   0  0  0  0  0  0  0  0  0  0  0  0
   -1.5859   -1.6686   -0.3550 H   0  0  0  0  0  0  0  0  0  0  0  0
   -0.9587   -0.7780   -1.8232 H   0  0  0  0  0  0  0  0  0  0  0  0
  1  2  2  0
  2  3  1  0
  3  4  1  0
  3  5  1  0
  5  6  1  0
  6  7  1  0
  7  8  1  0
  8  9  1  0
  6  2  1  0
  9  6  1  0
  3 10  1  0
  4 11  1  0
  5 12  1  0
  5 13  1  0
  7 14  1  0
  7 15  1  0
  8 16  1  0
  8 17  1  0
  9 18  1  0
  9 19  1  0
M  END
