
     RDKit          3D

 15 16  0  0  0  0  0  0  0  0999 V2000
    2.9382   -1.3629    1.4936 O   0  0  0  0  0  0  0  0  0  0  0  0
    1.9275   -0.9237    0.9168 C   0  0  0  0  0  0  0  0  0  0  0  0
    1.5447    0.4846    0.7824 C   0  0  0  0  0  0  0  0  0  0  0  0
    0.4377    0.6400    0.1175 C   0  0  0  0  0  0  0  0  0  0  0  0
   -0.6339    1.4830   -0.4666 C   0  0  0  0  0  0  0  0  0  0  0  0
   -1.7099    0.7169   -0.6280 C   0  0  0  0  0  0  0  0  0  0  0  0
   -1.3824   -0.6969   -0.1495 C   0  0  0  0  0  0  0  0  0  0  0  0
    0.1006   -0.7409   -0.4431 C   0  0  0  0  0  0  0  0  0  0  0  0
    0.8891   -1.6075    0.2473 O   0  0  0  0  0  0  0  0  0  0  0  0
    2.1029    1.3389    1.1833 H   0  0  0  0  0  0  0  0  0  0  0  0
   -0.4772    2.5348   -0.6894 H   0  0  0  0  0  0  0  0  0  0  0  0
   -2.6402    1.0285   -1.0214 H   0  0  0  0  0  0  0  0  0  0  0  0
   -1.8824   -1.4514   -0.7479 H   0  0  0  0  0  0  0  0  0  0  0  0
   -1.5189   -0.7620    0.9419 H   0  0  0  0  0  0  0  0  0  0  0  0
    0.3041   -0.6813   -1.5369 H   0  0  0  0  0  0  0  0  0  0  0  0
  1  2  2  0
  2  3  1  0
  3  4  2  0
  4  5  1  0
  5  6  2  0
  6  7  1  0
  7  8  1  0
  8  9  1  0
  9  2  1  0
  8  4  1  0
  3 10  1  0
  5 11  1  0
  6 12  1  0
  7 13  1  0
  7 14  1  0
  8 15  1  0
M  END
