
     RDKit          3D

 17 19  0  0  0  0  0  0  0  0999 V2000
    2.2982    1.9141   -0.0409 O   0  0  0  0  0  0  0  0  0  0  0  0
    1.5703    0.9294   -0.1369 C   0  0  0  0  0  0  0  0  0  0  0  0
    1.8353   -0.5816   -0.2073 C   0  0  0  0  0  0  0  0  0  0  0  0
    0.4823   -1.2334    0.1944 C   0  0  0  0  0  0  0  0  0  0  0  0
   -0.8422   -0.9485   -0.2677 C   0  0  0  0  0  0  0  0  0  0  0  0
   -1.9446    0.1107    0.0424 C   0  0  0  0  0  0  0  0  0  0  0  0
   -1.1314    1.3203   -0.3534 C   0  0  0  0  0  0  0  0  0  0  0  0
    0.1263    1.0390   -0.2157 C   0  0  0  0  0  0  0  0  0  0  0  0
   -0.0796   -0.1639    0.8073 C   0  0  0  0  0  0  0  0  0  0  0  0
    2.6002   -0.8211    0.5280 H   0  0  0  0  0  0  0  0  0  0  0  0
    2.0183   -0.8940   -1.2349 H   0  0  0  0  0  0  0  0  0  0  0  0
    0.6759   -2.2043    0.6963 H   0  0  0  0  0  0  0  0  0  0  0  0
   -0.7203   -0.8011   -1.3578 H   0  0  0  0  0  0  0  0  0  0  0  0
   -2.2491    0.1066    1.0795 H   0  0  0  0  0  0  0  0  0  0  0  0
   -2.7802   -0.0921   -0.6037 H   0  0  0  0  0  0  0  0  0  0  0  0
   -1.4574    2.2844   -0.6959 H   0  0  0  0  0  0  0  0  0  0  0  0
   -0.4020    0.0356    1.7665 H   0  0  0  0  0  0  0  0  0  0  0  0
  1  2  2  0
  2  3  1  0
  3  4  1  0
  4  5  1  0
  5  6  1  0
  6  7  1  0
  7  8  2  0
  8  9  1  0
  8  2  1  0
  9  4  1  0
  9  5  1  0
  3 10  1  0
  3 11  1  0
  4 12  1  0
  5 13  1  0
  6 14  1  0
  6 15  1  0
  7 16  1  0
  9 17  1  0
M  END
