
     RDKit          3D

 19 19  0  0  0  0  0  0  0  0999 V2000
    0.4031    2.0056    0.7435 O   0  0  0  0  0  0  0  0  0  0  0  0
   -0.1091    0.9944    0.3443 C   0  0  0  0  0  0  0  0  0  0  0  0
   -1.4814    0.5509    0.6519 C   0  0  0  0  0  0  0  0  0  0  0  0
   -2.3353    1.1599   -0.2717 O   0  0  0  0  0  0  0  0  0  0  0  0
   -1.4414   -0.9386    0.4976 C   0  0  0  0  0  0  0  0  0  0  0  0
   -0.2700   -1.2907   -0.3617 C   0  0  0  0  0  0  0  0  0  0  0  0
    0.5163   -0.0111   -0.5300 C   0  0  0  0  0  0  0  0  0  0  0  0
    1.9561   -0.1659   -0.0879 C   0  0  0  0  0  0  0  0  0  0  0  0
    2.5476    1.1034   -0.2354 O   0  0  0  0  0  0  0  0  0  0  0  0
   -1.7444    0.9010    1.6532 H   0  0  0  0  0  0  0  0  0  0  0  0
   -2.2040    2.1452   -0.1524 H   0  0  0  0  0  0  0  0  0  0  0  0
   -1.2858   -1.3813    1.5053 H   0  0  0  0  0  0  0  0  0  0  0  0
   -2.3724   -1.3604    0.0818 H   0  0  0  0  0  0  0  0  0  0  0  0
    0.4131   -2.0212    0.1621 H   0  0  0  0  0  0  0  0  0  0  0  0
   -0.5381   -1.7473   -1.3319 H   0  0  0  0  0  0  0  0  0  0  0  0
    0.4804    0.2958   -1.5981 H   0  0  0  0  0  0  0  0  0  0  0  0
    2.4855   -0.9351   -0.6709 H   0  0  0  0  0  0  0  0  0  0  0  0
    1.9325   -0.4359    0.9821 H   0  0  0  0  0  0  0  0  0  0  0  0
    3.0471    1.1312   -1.0924 H   0  0  0  0  0  0  0  0  0  0  0  0
  1  2  2  0
  2  3  1  0
  3  4  1  0
  3  5  1  0
  5  6  1  0
  6  7  1  0
  7  8  1  0
  8  9  1  0
  7  2  1  0
  3 10  1  0
  4 11  1  0
  5 12  1  0
  5 13  1  0
  6 14  1  0
  6 15  1  0
  7 16  1  0
  8 17  1  0
  8 18  1  0
  9 19  1  0
M  END
