
     RDKit          3D

 11 11  0  0  0  0  0  0  0  0999 V2000
   -0.4144    2.3790    0.0276 O   0  0  0  0  0  0  0  0  0  0  0  0
   -0.2108    1.1387   -0.0255 C   0  0  0  0  0  0  0  0  0  0  0  0
   -1.1955    0.0255   -0.1467 C   0  0  0  0  0  0  0  0  0  0  0  0
   -0.4205   -0.9595   -0.8041 O   0  0  0  0  0  0  0  0  0  0  0  0
    0.6899   -1.0044    0.0382 C   0  0  0  0  0  0  0  0  0  0  0  0
    1.0964    0.4429    0.0200 C   0  0  0  0  0  0  0  0  0  0  0  0
    2.2254    0.9564    0.0375 O   0  0  0  0  0  0  0  0  0  0  0  0
   -2.0733    0.3132   -0.7478 H   0  0  0  0  0  0  0  0  0  0  0  0
   -1.4676   -0.3994    0.8411 H   0  0  0  0  0  0  0  0  0  0  0  0
    0.2949   -1.2228    1.0531 H   0  0  0  0  0  0  0  0  0  0  0  0
    1.4755   -1.6697   -0.2935 H   0  0  0  0  0  0  0  0  0  0  0  0
  1  2  2  0
  2  3  1  0
  3  4  1  0
  4  5  1  0
  5  6  1  0
  6  7  2  0
  6  2  1  0
  3  8  1  0
  3  9  1  0
  5 10  1  0
  5 11  1  0
M  END
