
     RDKit          3D

 17 18  0  0  0  0  0  0  0  0999 V2000
    1.5676   -1.3330    1.6373 O   0  0  0  0  0  0  0  0  0  0  0  0
    1.0493   -0.7597    0.7225 C   0  0  0  0  0  0  0  0  0  0  0  0
   -0.1517   -1.1425   -0.1100 C   0  0  0  0  0  0  0  0  0  0  0  0
   -1.3341   -0.4438    0.5349 C   0  0  0  0  0  0  0  0  0  0  0  0
   -0.9652    1.0044    0.5710 C   0  0  0  0  0  0  0  0  0  0  0  0
    0.2528    1.4404    0.2963 C   0  0  0  0  0  0  0  0  0  0  0  0
    1.4173    0.5590    0.0742 C   0  0  0  0  0  0  0  0  0  0  0  0
    1.4475    0.1121   -1.2672 O   0  0  0  0  0  0  0  0  0  0  0  0
    0.1511   -0.3869   -1.3856 C   0  0  0  0  0  0  0  0  0  0  0  0
   -0.2676   -2.2074   -0.2280 H   0  0  0  0  0  0  0  0  0  0  0  0
   -2.2377   -0.6358   -0.0723 H   0  0  0  0  0  0  0  0  0  0  0  0
   -1.4821   -0.8387    1.5583 H   0  0  0  0  0  0  0  0  0  0  0  0
   -1.7267    1.7153    0.8320 H   0  0  0  0  0  0  0  0  0  0  0  0
    0.3955    2.5088    0.2322 H   0  0  0  0  0  0  0  0  0  0  0  0
    2.3668    0.9438    0.4186 H   0  0  0  0  0  0  0  0  0  0  0  0
   -0.5079    0.4909   -1.5363 H   0  0  0  0  0  0  0  0  0  0  0  0
    0.0253   -1.0267   -2.2779 H   0  0  0  0  0  0  0  0  0  0  0  0
  1  2  2  0
  2  3  1  0
  3  4  1  0
  4  5  1  0
  5  6  2  0
  6  7  1  0
  7  8  1  0
  8  9  1  0
  7  2  1  0
  9  3  1  0
  3 10  1  0
  4 11  1  0
  4 12  1  0
  5 13  1  0
  6 14  1  0
  7 15  1  0
  9 16  1  0
  9 17  1  0
M  END
