
     RDKit          3D

 17 18  0  0  0  0  0  0  0  0999 V2000
   -0.7414    2.5951   -0.3051 O   0  0  0  0  0  0  0  0  0  0  0  0
   -0.2440    1.4294   -0.2494 C   0  0  0  0  0  0  0  0  0  0  0  0
    1.1894    1.3286    0.0843 C   0  0  0  0  0  0  0  0  0  0  0  0
    1.9018    0.2267    0.1926 C   0  0  0  0  0  0  0  0  0  0  0  0
    1.4357   -1.1673    0.0060 C   0  0  0  0  0  0  0  0  0  0  0  0
    0.2017   -1.2635    0.6210 O   0  0  0  0  0  0  0  0  0  0  0  0
   -0.8705   -0.9827   -0.1356 C   0  0  0  0  0  0  0  0  0  0  0  0
   -1.9908   -0.1980    0.5903 C   0  0  0  0  0  0  0  0  0  0  0  0
   -1.1929    0.3576   -0.5309 C   0  0  0  0  0  0  0  0  0  0  0  0
    1.7027    2.2864    0.2582 H   0  0  0  0  0  0  0  0  0  0  0  0
    2.9398    0.3501    0.4450 H   0  0  0  0  0  0  0  0  0  0  0  0
    2.1700   -1.9056    0.3706 H   0  0  0  0  0  0  0  0  0  0  0  0
    1.2632   -1.3304   -1.0981 H   0  0  0  0  0  0  0  0  0  0  0  0
   -1.2301   -1.8304   -0.7893 H   0  0  0  0  0  0  0  0  0  0  0  0
   -3.0193   -0.5958    0.4341 H   0  0  0  0  0  0  0  0  0  0  0  0
   -1.7451    0.2046    1.5925 H   0  0  0  0  0  0  0  0  0  0  0  0
   -1.7702    0.4952   -1.4861 H   0  0  0  0  0  0  0  0  0  0  0  0
  1  2  2  0
  2  3  1  0
  3  4  2  0
  4  5  1  0
  5  6  1  0
  6  7  1  0
  7  8  1  0
  8  9  1  0
  9  2  1  0
  9  7  1  0
  3 10  1  0
  4 11  1  0
  5 12  1  0
  5 13  1  0
  7 14  1  0
  8 15  1  0
  8 16  1  0
  9 17  1  0
M  END
