
     RDKit          3D

 13 13  0  0  0  0  0  0  0  0999 V2000
    1.8928   -1.7847   -0.5566 O   0  0  0  0  0  0  0  0  0  0  0  0
    0.9790   -0.9379   -0.2913 C   0  0  0  0  0  0  0  0  0  0  0  0
    1.5056    0.3183    0.2456 C   0  0  0  0  0  0  0  0  0  0  0  0
    0.6662    1.4199    0.0945 O   0  0  0  0  0  0  0  0  0  0  0  0
   -0.7005    1.5732   -0.0134 C   0  0  0  0  0  0  0  0  0  0  0  0
   -1.0936    2.7612    0.0234 O   0  0  0  0  0  0  0  0  0  0  0  0
   -1.6210    0.5561   -0.1523 O   0  0  0  0  0  0  0  0  0  0  0  0
   -1.5242   -0.8368   -0.0675 C   0  0  0  0  0  0  0  0  0  0  0  0
   -0.3133   -1.3561   -0.5552 O   0  0  0  0  0  0  0  0  0  0  0  0
    2.4547    0.5424   -0.3229 H   0  0  0  0  0  0  0  0  0  0  0  0
    1.7723    0.1527    1.3192 H   0  0  0  0  0  0  0  0  0  0  0  0
   -1.6643   -1.1569    0.9900 H   0  0  0  0  0  0  0  0  0  0  0  0
   -2.3537   -1.2516   -0.7134 H   0  0  0  0  0  0  0  0  0  0  0  0
  1  2  2  0
  2  3  1  0
  3  4  1  0
  4  5  1  0
  5  6  2  0
  5  7  1  0
  7  8  1  0
  8  9  1  0
  9  2  1  0
  3 10  1  0
  3 11  1  0
  8 12  1  0
  8 13  1  0
M  END
