
     RDKit          3D

 19 21  0  0  0  0  0  0  0  0999 V2000
    0.1202    2.7179    1.2383 O   0  0  0  0  0  0  0  0  0  0  0  0
   -0.0067    1.7257    0.5483 C   0  0  0  0  0  0  0  0  0  0  0  0
    0.8012    0.9632   -0.4765 C   0  0  0  0  0  0  0  0  0  0  0  0
    1.4529   -0.2850    0.1316 C   0  0  0  0  0  0  0  0  0  0  0  0
    0.2885   -1.2158    0.2649 C   0  0  0  0  0  0  0  0  0  0  0  0
   -0.7310   -0.5326    1.1563 C   0  0  0  0  0  0  0  0  0  0  0  0
   -1.0635    0.6979    0.3392 C   0  0  0  0  0  0  0  0  0  0  0  0
   -0.4902    0.4801   -1.0444 C   0  0  0  0  0  0  0  0  0  0  0  0
   -0.3885   -1.0273   -1.1027 C   0  0  0  0  0  0  0  0  0  0  0  0
    1.4506    1.5710   -1.0994 H   0  0  0  0  0  0  0  0  0  0  0  0
    2.2358   -0.6400   -0.5580 H   0  0  0  0  0  0  0  0  0  0  0  0
    1.8340   -0.0660    1.1505 H   0  0  0  0  0  0  0  0  0  0  0  0
    0.5030   -2.2348    0.5058 H   0  0  0  0  0  0  0  0  0  0  0  0
   -1.5955   -1.1547    1.3892 H   0  0  0  0  0  0  0  0  0  0  0  0
   -0.1708   -0.2078    2.0719 H   0  0  0  0  0  0  0  0  0  0  0  0
   -2.0923    1.0372    0.3546 H   0  0  0  0  0  0  0  0  0  0  0  0
   -0.9414    0.9932   -1.8666 H   0  0  0  0  0  0  0  0  0  0  0  0
    0.2197   -1.4025   -1.9211 H   0  0  0  0  0  0  0  0  0  0  0  0
   -1.4260   -1.4198   -1.0818 H   0  0  0  0  0  0  0  0  0  0  0  0
  1  2  2  0
  2  3  1  0
  3  4  1  0
  4  5  1  0
  5  6  1  0
  6  7  1  0
  7  8  1  0
  8  9  1  0
  7  2  1  0
  8  3  1  0
  9  5  1  0
  3 10  1  0
  4 11  1  0
  4 12  1  0
  5 13  1  0
  6 14  1  0
  6 15  1  0
  7 16  1  0
  8 17  1  0
  9 18  1  0
  9 19  1  0
M  END
