
     RDKit          3D

 19 21  0  0  0  0  0  0  0  0999 V2000
   -1.2724   -0.6386    2.2959 O   0  0  0  0  0  0  0  0  0  0  0  0
   -0.9410   -0.3710    1.1541 C   0  0  0  0  0  0  0  0  0  0  0  0
   -1.2457    0.8983    0.4032 C   0  0  0  0  0  0  0  0  0  0  0  0
   -0.4561    0.7217   -0.8551 C   0  0  0  0  0  0  0  0  0  0  0  0
   -0.7158   -0.7743   -1.1132 C   0  0  0  0  0  0  0  0  0  0  0  0
   -0.1566   -1.2435    0.2407 C   0  0  0  0  0  0  0  0  0  0  0  0
    1.2465   -0.7063    0.1268 C   0  0  0  0  0  0  0  0  0  0  0  0
    1.5426    0.5574    0.8072 C   0  0  0  0  0  0  0  0  0  0  0  0
    1.0265    0.6752   -0.5604 C   0  0  0  0  0  0  0  0  0  0  0  0
   -1.0127    1.7922    0.9743 H   0  0  0  0  0  0  0  0  0  0  0  0
   -2.3332    0.8399    0.1124 H   0  0  0  0  0  0  0  0  0  0  0  0
   -0.7330    1.3452   -1.6869 H   0  0  0  0  0  0  0  0  0  0  0  0
   -1.7795   -0.9551   -1.2090 H   0  0  0  0  0  0  0  0  0  0  0  0
   -0.0850   -1.0677   -1.9418 H   0  0  0  0  0  0  0  0  0  0  0  0
   -0.2490   -2.2969    0.4047 H   0  0  0  0  0  0  0  0  0  0  0  0
    2.0152   -1.3212   -0.3765 H   0  0  0  0  0  0  0  0  0  0  0  0
    0.8645    0.8021    1.6743 H   0  0  0  0  0  0  0  0  0  0  0  0
    2.6105    0.8229    0.9495 H   0  0  0  0  0  0  0  0  0  0  0  0
    1.6743    0.9198   -1.4002 H   0  0  0  0  0  0  0  0  0  0  0  0
  1  2  2  0
  2  3  1  0
  3  4  1  0
  4  5  1  0
  5  6  1  0
  6  7  1  0
  7  8  1  0
  8  9  1  0
  6  2  1  0
  9  7  1  0
  9  4  1  0
  3 10  1  0
  3 11  1  0
  4 12  1  0
  5 13  1  0
  5 14  1  0
  6 15  1  0
  7 16  1  0
  8 17  1  0
  8 18  1  0
  9 19  1  0
M  END
