
     RDKit          3D

 17 18  0  0  0  0  0  0  0  0999 V2000
   -1.8190   -2.2780   -0.2488 O   0  0  0  0  0  0  0  0  0  0  0  0
   -1.4809   -1.1248   -0.0294 C   0  0  0  0  0  0  0  0  0  0  0  0
   -1.9462    0.2078   -0.5057 C   0  0  0  0  0  0  0  0  0  0  0  0
   -0.6311    0.7889   -0.0298 C   0  0  0  0  0  0  0  0  0  0  0  0
    0.3200    0.9162   -1.0294 O   0  0  0  0  0  0  0  0  0  0  0  0
    1.6140    0.9724   -0.5238 C   0  0  0  0  0  0  0  0  0  0  0  0
    1.9047   -0.3769    0.0375 C   0  0  0  0  0  0  0  0  0  0  0  0
    0.9040   -0.9998    0.6488 C   0  0  0  0  0  0  0  0  0  0  0  0
   -0.4555   -0.4480    0.8043 C   0  0  0  0  0  0  0  0  0  0  0  0
   -2.8268    0.5137    0.1006 H   0  0  0  0  0  0  0  0  0  0  0  0
   -2.1118    0.2958   -1.5881 H   0  0  0  0  0  0  0  0  0  0  0  0
   -0.7311    1.7374    0.5461 H   0  0  0  0  0  0  0  0  0  0  0  0
    1.7234    1.7046    0.2885 H   0  0  0  0  0  0  0  0  0  0  0  0
    2.3069    1.2075   -1.3309 H   0  0  0  0  0  0  0  0  0  0  0  0
    2.8839   -0.8209   -0.0520 H   0  0  0  0  0  0  0  0  0  0  0  0
    1.1420   -1.9902    1.0531 H   0  0  0  0  0  0  0  0  0  0  0  0
   -0.7965   -0.3059    1.8588 H   0  0  0  0  0  0  0  0  0  0  0  0
  1  2  2  0
  2  3  1  0
  3  4  1  0
  4  5  1  0
  5  6  1  0
  6  7  1  0
  7  8  2  0
  8  9  1  0
  9  2  1  0
  9  4  1  0
  3 10  1  0
  3 11  1  0
  4 12  1  0
  6 13  1  0
  6 14  1  0
  7 15  1  0
  8 16  1  0
  9 17  1  0
M  END
