
     RDKit          3D

 19 20  0  0  0  0  0  0  0  0999 V2000
    3.4744   -0.2024   -0.1708 O   0  0  0  0  0  0  0  0  0  0  0  0
    2.2837   -0.2955    0.0173 C   0  0  0  0  0  0  0  0  0  0  0  0
    1.2311   -1.2715   -0.3811 C   0  0  0  0  0  0  0  0  0  0  0  0
    0.1643   -0.2986    0.0276 C   0  0  0  0  0  0  0  0  0  0  0  0
   -0.9200   -0.8118    0.8516 C   0  0  0  0  0  0  0  0  0  0  0  0
   -1.9768   -0.0370    0.6834 C   0  0  0  0  0  0  0  0  0  0  0  0
   -1.6733    1.0788   -0.2891 C   0  0  0  0  0  0  0  0  0  0  0  0
   -0.4914    0.4785   -1.0588 C   0  0  0  0  0  0  0  0  0  0  0  0
    1.2408    0.4882    0.7289 C   0  0  0  0  0  0  0  0  0  0  0  0
    1.2799   -1.4283   -1.4766 H   0  0  0  0  0  0  0  0  0  0  0  0
    1.2858   -2.1900    0.2213 H   0  0  0  0  0  0  0  0  0  0  0  0
   -0.8719   -1.7000    1.5090 H   0  0  0  0  0  0  0  0  0  0  0  0
   -2.9494   -0.1331    1.1458 H   0  0  0  0  0  0  0  0  0  0  0  0
   -2.5096    1.1700   -0.9784 H   0  0  0  0  0  0  0  0  0  0  0  0
   -1.3965    1.9731    0.2658 H   0  0  0  0  0  0  0  0  0  0  0  0
   -0.8380   -0.1290   -1.9092 H   0  0  0  0  0  0  0  0  0  0  0  0
    0.1329    1.3234   -1.3933 H   0  0  0  0  0  0  0  0  0  0  0  0
    1.2862    1.5515    0.3883 H   0  0  0  0  0  0  0  0  0  0  0  0
    1.2478    0.4338    1.8183 H   0  0  0  0  0  0  0  0  0  0  0  0
  1  2  2  0
  2  3  1  0
  3  4  1  0
  4  5  1  0
  5  6  2  0
  6  7  1  0
  7  8  1  0
  4  9  1  0
  9  2  1  0
  8  4  1  0
  3 10  1  0
  3 11  1  0
  5 12  1  0
  6 13  1  0
  7 14  1  0
  7 15  1  0
  8 16  1  0
  8 17  1  0
  9 18  1  0
  9 19  1  0
M  END
