
     RDKit          3D

 17 19  0  0  0  0  0  0  0  0999 V2000
   -1.3953   -0.2823   -2.3513 O   0  0  0  0  0  0  0  0  0  0  0  0
   -1.0984   -0.1052   -1.1850 C   0  0  0  0  0  0  0  0  0  0  0  0
   -0.8895   -0.9345    0.0484 C   0  0  0  0  0  0  0  0  0  0  0  0
   -1.4958    0.2620    0.7920 C   0  0  0  0  0  0  0  0  0  0  0  0
   -0.7636    1.0392   -0.2781 C   0  0  0  0  0  0  0  0  0  0  0  0
    0.6766    0.7736    0.0470 C   0  0  0  0  0  0  0  0  0  0  0  0
    1.4423   -0.1671   -0.7827 C   0  0  0  0  0  0  0  0  0  0  0  0
    2.8107   -0.2061   -0.5725 O   0  0  0  0  0  0  0  0  0  0  0  0
    0.5687   -0.7753    0.2914 C   0  0  0  0  0  0  0  0  0  0  0  0
   -1.3779   -1.8676    0.1237 H   0  0  0  0  0  0  0  0  0  0  0  0
   -1.1109    0.3493    1.8063 H   0  0  0  0  0  0  0  0  0  0  0  0
   -2.5877    0.3271    0.7420 H   0  0  0  0  0  0  0  0  0  0  0  0
   -1.0923    2.0111   -0.5391 H   0  0  0  0  0  0  0  0  0  0  0  0
    1.1827    1.3103    0.8678 H   0  0  0  0  0  0  0  0  0  0  0  0
    1.1145   -0.4015   -1.8088 H   0  0  0  0  0  0  0  0  0  0  0  0
    2.9597   -0.1758    0.4007 H   0  0  0  0  0  0  0  0  0  0  0  0
    1.0561   -1.1573    1.1879 H   0  0  0  0  0  0  0  0  0  0  0  0
  1  2  2  0
  2  3  1  0
  3  4  1  0
  4  5  1  0
  5  6  1  0
  6  7  1  0
  7  8  1  0
  7  9  1  0
  5  2  1  0
  9  6  1  0
  9  3  1  0
  3 10  1  0
  4 11  1  0
  4 12  1  0
  5 13  1  0
  6 14  1  0
  7 15  1  0
  8 16  1  0
  9 17  1  0
M  END
