
     RDKit          3D

 19 19  0  0  0  0  0  0  0  0999 V2000
    1.4147    1.4207   -1.5792 O   0  0  0  0  0  0  0  0  0  0  0  0
    0.9416    0.8827   -0.5913 C   0  0  0  0  0  0  0  0  0  0  0  0
   -0.2396    1.5581    0.0558 C   0  0  0  0  0  0  0  0  0  0  0  0
   -1.4551    0.7412   -0.2767 C   0  0  0  0  0  0  0  0  0  0  0  0
   -1.5151   -0.5309    0.5837 C   0  0  0  0  0  0  0  0  0  0  0  0
   -0.5977   -1.5621    0.0142 C   0  0  0  0  0  0  0  0  0  0  0  0
    0.6766   -1.5261   -0.3010 C   0  0  0  0  0  0  0  0  0  0  0  0
    1.6053   -0.3726   -0.1655 C   0  0  0  0  0  0  0  0  0  0  0  0
    1.9313   -0.2820    1.1944 O   0  0  0  0  0  0  0  0  0  0  0  0
   -0.3607    2.5437   -0.4382 H   0  0  0  0  0  0  0  0  0  0  0  0
   -0.0922    1.6602    1.1451 H   0  0  0  0  0  0  0  0  0  0  0  0
   -1.3288    0.3756   -1.3185 H   0  0  0  0  0  0  0  0  0  0  0  0
   -2.3803    1.3278   -0.1320 H   0  0  0  0  0  0  0  0  0  0  0  0
   -1.2566   -0.2881    1.6334 H   0  0  0  0  0  0  0  0  0  0  0  0
   -2.5743   -0.8566    0.5360 H   0  0  0  0  0  0  0  0  0  0  0  0
   -1.0586   -2.5241   -0.1793 H   0  0  0  0  0  0  0  0  0  0  0  0
    1.1409   -2.4388   -0.7159 H   0  0  0  0  0  0  0  0  0  0  0  0
    2.5237   -0.5308   -0.7548 H   0  0  0  0  0  0  0  0  0  0  0  0
    2.6250    0.4020    1.2900 H   0  0  0  0  0  0  0  0  0  0  0  0
  1  2  2  0
  2  3  1  0
  3  4  1  0
  4  5  1  0
  5  6  1  0
  6  7  2  0
  7  8  1  0
  8  9  1  0
  8  2  1  0
  3 10  1  0
  3 11  1  0
  4 12  1  0
  4 13  1  0
  5 14  1  0
  5 15  1  0
  6 16  1  0
  7 17  1  0
  8 18  1  0
  9 19  1  0
M  END
