
     RDKit          3D

 17 18  0  0  0  0  0  0  0  0999 V2000
    1.3337    1.7859   -0.8260 O   0  0  0  0  0  0  0  0  0  0  0  0
    0.6381    0.9996   -0.2254 C   0  0  0  0  0  0  0  0  0  0  0  0
   -0.5893    1.3619    0.5274 C   0  0  0  0  0  0  0  0  0  0  0  0
   -1.7464    0.5025    0.1562 C   0  0  0  0  0  0  0  0  0  0  0  0
   -1.3975   -0.7049   -0.6135 C   0  0  0  0  0  0  0  0  0  0  0  0
   -0.1657   -1.1656   -0.7844 C   0  0  0  0  0  0  0  0  0  0  0  0
    0.9743   -0.4702   -0.1911 C   0  0  0  0  0  0  0  0  0  0  0  0
    2.2421   -0.8942    0.0964 C   0  0  0  0  0  0  0  0  0  0  0  0
    1.2680   -0.8203    1.2182 O   0  0  0  0  0  0  0  0  0  0  0  0
   -0.3401    1.1490    1.6090 H   0  0  0  0  0  0  0  0  0  0  0  0
   -0.7976    2.4503    0.4277 H   0  0  0  0  0  0  0  0  0  0  0  0
   -2.2928    0.1538    1.0802 H   0  0  0  0  0  0  0  0  0  0  0  0
   -2.4927    1.1349   -0.3821 H   0  0  0  0  0  0  0  0  0  0  0  0
   -2.2250   -1.2505   -1.0716 H   0  0  0  0  0  0  0  0  0  0  0  0
   -0.0431   -2.0671   -1.3745 H   0  0  0  0  0  0  0  0  0  0  0  0
    2.5698   -1.9558    0.0236 H   0  0  0  0  0  0  0  0  0  0  0  0
    3.0645   -0.2094    0.3297 H   0  0  0  0  0  0  0  0  0  0  0  0
  1  2  2  0
  2  3  1  0
  3  4  1  0
  4  5  1  0
  5  6  2  0
  6  7  1  0
  7  8  1  0
  8  9  1  0
  7  2  1  0
  9  7  1  0
  3 10  1  0
  3 11  1  0
  4 12  1  0
  4 13  1  0
  5 14  1  0
  6 15  1  0
  8 16  1  0
  8 17  1  0
M  END
