
     RDKit          3D

 17 18  0  0  0  0  0  0  0  0999 V2000
    1.1990   -1.2176    1.7007 O   0  0  0  0  0  0  0  0  0  0  0  0
    0.8449   -0.5430    0.7869 C   0  0  0  0  0  0  0  0  0  0  0  0
    0.4044    0.8478    0.5621 C   0  0  0  0  0  0  0  0  0  0  0  0
    1.4726    1.3309   -0.3618 C   0  0  0  0  0  0  0  0  0  0  0  0
    1.6008    0.2907   -1.2161 C   0  0  0  0  0  0  0  0  0  0  0  0
    0.6328   -0.6845   -0.6625 C   0  0  0  0  0  0  0  0  0  0  0  0
   -0.5661    0.2563   -0.4317 C   0  0  0  0  0  0  0  0  0  0  0  0
   -1.7712   -0.4088    0.1375 C   0  0  0  0  0  0  0  0  0  0  0  0
   -1.5069   -1.4651    0.9661 O   0  0  0  0  0  0  0  0  0  0  0  0
    0.0669    1.4539    1.3486 H   0  0  0  0  0  0  0  0  0  0  0  0
    2.0121    2.2714   -0.3569 H   0  0  0  0  0  0  0  0  0  0  0  0
    2.2435    0.1918   -2.0821 H   0  0  0  0  0  0  0  0  0  0  0  0
    0.4593   -1.6091   -1.1182 H   0  0  0  0  0  0  0  0  0  0  0  0
   -0.7495    0.9457   -1.2673 H   0  0  0  0  0  0  0  0  0  0  0  0
   -2.4483   -0.7495   -0.6711 H   0  0  0  0  0  0  0  0  0  0  0  0
   -2.3372    0.3626    0.7377 H   0  0  0  0  0  0  0  0  0  0  0  0
   -1.5573   -1.2736    1.9281 H   0  0  0  0  0  0  0  0  0  0  0  0
  1  2  2  0
  2  3  1  0
  3  4  1  0
  4  5  2  0
  5  6  1  0
  6  7  1  0
  7  8  1  0
  8  9  1  0
  6  2  1  0
  7  3  1  0
  3 10  1  0
  4 11  1  0
  5 12  1  0
  6 13  1  0
  7 14  1  0
  8 15  1  0
  8 16  1  0
  9 17  1  0
M  END
