
     RDKit          3D

 17 18  0  0  0  0  0  0  0  0999 V2000
   -1.9256   -0.7128    2.2542 O   0  0  0  0  0  0  0  0  0  0  0  0
   -1.3726   -0.5351    1.2123 C   0  0  0  0  0  0  0  0  0  0  0  0
   -0.9845   -1.2587   -0.0159 C   0  0  0  0  0  0  0  0  0  0  0  0
   -1.3441    0.0608   -0.7261 C   0  0  0  0  0  0  0  0  0  0  0  0
   -0.7245    0.6139    0.5425 C   0  0  0  0  0  0  0  0  0  0  0  0
    0.6753    0.0836    0.4116 C   0  0  0  0  0  0  0  0  0  0  0  0
    1.5538    0.8787   -0.4951 C   0  0  0  0  0  0  0  0  0  0  0  0
    2.7617    0.1579   -0.6259 O   0  0  0  0  0  0  0  0  0  0  0  0
    0.3989   -1.2060   -0.0933 O   0  0  0  0  0  0  0  0  0  0  0  0
   -1.5083   -2.1270   -0.3169 H   0  0  0  0  0  0  0  0  0  0  0  0
   -2.4311    0.1588   -0.8094 H   0  0  0  0  0  0  0  0  0  0  0  0
   -0.7712    0.2658   -1.6254 H   0  0  0  0  0  0  0  0  0  0  0  0
   -0.9165    1.6013    0.8395 H   0  0  0  0  0  0  0  0  0  0  0  0
    1.0889   -0.0550    1.4126 H   0  0  0  0  0  0  0  0  0  0  0  0
    1.8136    1.8162   -0.0014 H   0  0  0  0  0  0  0  0  0  0  0  0
    1.0943    1.0666   -1.4643 H   0  0  0  0  0  0  0  0  0  0  0  0
    2.5920   -0.8087   -0.4989 H   0  0  0  0  0  0  0  0  0  0  0  0
  1  2  2  0
  2  3  1  0
  3  4  1  0
  4  5  1  0
  5  6  1  0
  6  7  1  0
  7  8  1  0
  6  9  1  0
  5  2  1  0
  9  3  1  0
  3 10  1  0
  4 11  1  0
  4 12  1  0
  5 13  1  0
  6 14  1  0
  7 15  1  0
  7 16  1  0
  8 17  1  0
M  END
