
     RDKit          3D

 17 18  0  0  0  0  0  0  0  0999 V2000
    3.2629   -0.8838    0.0653 O   0  0  0  0  0  0  0  0  0  0  0  0
    2.2041   -0.3111    0.0595 C   0  0  0  0  0  0  0  0  0  0  0  0
    1.3298    0.3598    1.0481 C   0  0  0  0  0  0  0  0  0  0  0  0
    0.1724    0.0474    0.1220 C   0  0  0  0  0  0  0  0  0  0  0  0
   -0.8860    1.0448    0.0438 C   0  0  0  0  0  0  0  0  0  0  0  0
   -2.0468    0.4138   -0.0707 C   0  0  0  0  0  0  0  0  0  0  0  0
   -1.7486   -1.0422   -0.0684 C   0  0  0  0  0  0  0  0  0  0  0  0
   -0.4498   -1.1675    0.3717 O   0  0  0  0  0  0  0  0  0  0  0  0
    1.1970    0.0292   -0.9706 C   0  0  0  0  0  0  0  0  0  0  0  0
    1.1838   -0.1830    2.0021 H   0  0  0  0  0  0  0  0  0  0  0  0
    1.4501    1.4532    1.1297 H   0  0  0  0  0  0  0  0  0  0  0  0
   -0.7569    2.1259    0.0733 H   0  0  0  0  0  0  0  0  0  0  0  0
   -3.0464    0.8803   -0.1520 H   0  0  0  0  0  0  0  0  0  0  0  0
   -1.8885   -1.4649   -1.0964 H   0  0  0  0  0  0  0  0  0  0  0  0
   -2.4097   -1.5979    0.6479 H   0  0  0  0  0  0  0  0  0  0  0  0
    1.3834    1.0164   -1.4340 H   0  0  0  0  0  0  0  0  0  0  0  0
    1.0491   -0.7205   -1.7712 H   0  0  0  0  0  0  0  0  0  0  0  0
  1  2  2  0
  2  3  1  0
  3  4  1  0
  4  5  1  0
  5  6  2  0
  6  7  1  0
  7  8  1  0
  4  9  1  0
  9  2  1  0
  8  4  1  0
  3 10  1  0
  3 11  1  0
  5 12  1  0
  6 13  1  0
  7 14  1  0
  7 15  1  0
  9 16  1  0
  9 17  1  0
M  END
