
     RDKit          3D

 15 15  0  0  0  0  0  0  0  0999 V2000
   -0.8157    2.0084   -1.3026 O   0  0  0  0  0  0  0  0  0  0  0  0
   -0.5186    1.0074   -0.7286 C   0  0  0  0  0  0  0  0  0  0  0  0
    0.5483    0.0581   -1.0634 C   0  0  0  0  0  0  0  0  0  0  0  0
    0.7753   -0.7548    0.2152 C   0  0  0  0  0  0  0  0  0  0  0  0
    2.1225   -0.8263    0.5304 O   0  0  0  0  0  0  0  0  0  0  0  0
   -0.0172   -0.0248    1.2329 C   0  0  0  0  0  0  0  0  0  0  0  0
    0.1550    0.1608    2.4150 O   0  0  0  0  0  0  0  0  0  0  0  0
   -1.1873    0.4997    0.4802 C   0  0  0  0  0  0  0  0  0  0  0  0
   -2.0742   -0.5397    0.2166 O   0  0  0  0  0  0  0  0  0  0  0  0
    0.1850   -0.5947   -1.8831 H   0  0  0  0  0  0  0  0  0  0  0  0
    1.4844    0.5259   -1.4210 H   0  0  0  0  0  0  0  0  0  0  0  0
    0.3605   -1.7685    0.1374 H   0  0  0  0  0  0  0  0  0  0  0  0
    2.5110    0.0734    0.6727 H   0  0  0  0  0  0  0  0  0  0  0  0
   -1.7344    1.2810    1.0402 H   0  0  0  0  0  0  0  0  0  0  0  0
   -1.7948   -1.1059   -0.5420 H   0  0  0  0  0  0  0  0  0  0  0  0
  1  2  2  0
  2  3  1  0
  3  4  1  0
  4  5  1  0
  4  6  1  0
  6  7  2  0
  6  8  1  0
  8  9  1  0
  8  2  1  0
  3 10  1  0
  3 11  1  0
  4 12  1  0
  5 13  1  0
  8 14  1  0
  9 15  1  0
M  END
