
     RDKit          3D

 17 18  0  0  0  0  0  0  0  0999 V2000
    2.7044   -0.6912   -1.6333 O   0  0  0  0  0  0  0  0  0  0  0  0
    1.8423   -0.5647   -0.7372 C   0  0  0  0  0  0  0  0  0  0  0  0
    1.6652   -1.2771    0.4649 O   0  0  0  0  0  0  0  0  0  0  0  0
    0.5303   -0.6487    1.0338 C   0  0  0  0  0  0  0  0  0  0  0  0
    0.8564    0.8099    0.7998 C   0  0  0  0  0  0  0  0  0  0  0  0
    0.7056    0.4009   -0.6569 C   0  0  0  0  0  0  0  0  0  0  0  0
   -0.3734   -0.5364   -0.1806 C   0  0  0  0  0  0  0  0  0  0  0  0
   -1.7199    0.0129    0.1041 C   0  0  0  0  0  0  0  0  0  0  0  0
   -2.5347    0.1114   -1.0054 O   0  0  0  0  0  0  0  0  0  0  0  0
    0.1392   -0.9683    1.9546 H   0  0  0  0  0  0  0  0  0  0  0  0
    0.1896    1.5621    1.1874 H   0  0  0  0  0  0  0  0  0  0  0  0
    1.9382    1.0646    0.9730 H   0  0  0  0  0  0  0  0  0  0  0  0
    0.5416    1.1096   -1.4002 H   0  0  0  0  0  0  0  0  0  0  0  0
   -0.3311   -1.4759   -0.7541 H   0  0  0  0  0  0  0  0  0  0  0  0
   -1.6718    0.9519    0.6632 H   0  0  0  0  0  0  0  0  0  0  0  0
   -2.2349   -0.7177    0.7971 H   0  0  0  0  0  0  0  0  0  0  0  0
   -2.2470    0.8566   -1.6102 H   0  0  0  0  0  0  0  0  0  0  0  0
  1  2  2  0
  2  3  1  0
  3  4  1  0
  4  5  1  0
  5  6  1  0
  6  7  1  0
  7  8  1  0
  8  9  1  0
  6  2  1  0
  7  4  1  0
  4 10  1  0
  5 11  1  0
  5 12  1  0
  6 13  1  0
  7 14  1  0
  8 15  1  0
  8 16  1  0
  9 17  1  0
M  END
