
     RDKit          3D

 17 18  0  0  0  0  0  0  0  0999 V2000
    0.5233    2.4985    0.4688 O   0  0  0  0  0  0  0  0  0  0  0  0
    0.3900    1.3636    0.0441 C   0  0  0  0  0  0  0  0  0  0  0  0
   -0.9590    0.8248   -0.1591 C   0  0  0  0  0  0  0  0  0  0  0  0
   -1.8098    1.3467    0.8444 O   0  0  0  0  0  0  0  0  0  0  0  0
   -1.0444   -0.6494   -0.2543 C   0  0  0  0  0  0  0  0  0  0  0  0
    0.1678   -1.4177    0.0794 C   0  0  0  0  0  0  0  0  0  0  0  0
    1.4720   -0.7803   -0.1897 C   0  0  0  0  0  0  0  0  0  0  0  0
    2.0683   -0.0692    1.0013 O   0  0  0  0  0  0  0  0  0  0  0  0
    1.5944    0.5806   -0.2474 C   0  0  0  0  0  0  0  0  0  0  0  0
   -1.3535    1.2853   -1.1126 H   0  0  0  0  0  0  0  0  0  0  0  0
   -2.7379    1.4588    0.4723 H   0  0  0  0  0  0  0  0  0  0  0  0
   -1.8705   -0.9844    0.4422 H   0  0  0  0  0  0  0  0  0  0  0  0
   -1.4219   -0.9635   -1.2721 H   0  0  0  0  0  0  0  0  0  0  0  0
    0.1547   -1.7247    1.1680 H   0  0  0  0  0  0  0  0  0  0  0  0
    0.1108   -2.4072   -0.4660 H   0  0  0  0  0  0  0  0  0  0  0  0
    2.2907   -1.4778   -0.5236 H   0  0  0  0  0  0  0  0  0  0  0  0
    2.4248    1.1160   -0.7374 H   0  0  0  0  0  0  0  0  0  0  0  0
  1  2  2  0
  2  3  1  0
  3  4  1  0
  3  5  1  0
  5  6  1  0
  6  7  1  0
  7  8  1  0
  8  9  1  0
  9  2  1  0
  9  7  1  0
  3 10  1  0
  4 11  1  0
  5 12  1  0
  5 13  1  0
  6 14  1  0
  6 15  1  0
  7 16  1  0
  9 17  1  0
M  END
