
     RDKit          3D

 13 14  0  0  0  0  0  0  0  0999 V2000
    0.1771   -2.3077    0.9958 O   0  0  0  0  0  0  0  0  0  0  0  0
    0.2861   -1.1406    0.5210 C   0  0  0  0  0  0  0  0  0  0  0  0
    1.4665   -0.6663   -0.2083 C   0  0  0  0  0  0  0  0  0  0  0  0
    1.4568    0.6631   -0.2522 C   0  0  0  0  0  0  0  0  0  0  0  0
    0.2521    1.1573    0.4555 C   0  0  0  0  0  0  0  0  0  0  0  0
    0.1207    2.3385    0.8488 O   0  0  0  0  0  0  0  0  0  0  0  0
   -0.6307   -0.0121    0.5443 C   0  0  0  0  0  0  0  0  0  0  0  0
   -1.7848   -0.0089   -0.4579 C   0  0  0  0  0  0  0  0  0  0  0  0
   -1.9009   -0.0136    0.9285 O   0  0  0  0  0  0  0  0  0  0  0  0
    2.2464   -1.3050   -0.6544 H   0  0  0  0  0  0  0  0  0  0  0  0
    2.2214    1.2831   -0.7362 H   0  0  0  0  0  0  0  0  0  0  0  0
   -1.8833   -0.9320   -1.0306 H   0  0  0  0  0  0  0  0  0  0  0  0
   -2.0275    0.9441   -0.9544 H   0  0  0  0  0  0  0  0  0  0  0  0
  1  2  2  0
  2  3  1  0
  3  4  2  0
  4  5  1  0
  5  6  2  0
  5  7  1  0
  7  8  1  0
  8  9  1  0
  7  2  1  0
  9  7  1  0
  3 10  1  0
  4 11  1  0
  8 12  1  0
  8 13  1  0
M  END
