
     RDKit          3D

 18 18  0  0  0  0  0  0  0  0999 V2000
    0.9000    2.4260    0.1275 O   0  0  0  0  0  0  0  0  0  0  0  0
    0.5042    1.3252   -0.2388 C   0  0  0  0  0  0  0  0  0  0  0  0
    1.6128    0.3083   -0.2523 C   0  0  0  0  0  0  0  0  0  0  0  0
    1.2836   -0.7661    0.7536 C   0  0  0  0  0  0  0  0  0  0  0  0
    0.1922   -1.6065    0.2055 C   0  0  0  0  0  0  0  0  0  0  0  0
   -1.0426   -1.2028   -0.0477 C   0  0  0  0  0  0  0  0  0  0  0  0
   -1.6477    0.1228    0.1338 C   0  0  0  0  0  0  0  0  0  0  0  0
   -0.9113    1.2328   -0.5740 C   0  0  0  0  0  0  0  0  0  0  0  0
    1.6436   -0.2111   -1.2547 H   0  0  0  0  0  0  0  0  0  0  0  0
    2.5893    0.7681   -0.1212 H   0  0  0  0  0  0  0  0  0  0  0  0
    0.8776   -0.2807    1.6871 H   0  0  0  0  0  0  0  0  0  0  0  0
    2.1725   -1.3523    1.0412 H   0  0  0  0  0  0  0  0  0  0  0  0
    0.4307   -2.6368   -0.0037 H   0  0  0  0  0  0  0  0  0  0  0  0
   -1.7173   -1.9746   -0.4550 H   0  0  0  0  0  0  0  0  0  0  0  0
   -2.6954    0.1334   -0.2395 H   0  0  0  0  0  0  0  0  0  0  0  0
   -1.6955    0.4029    1.2181 H   0  0  0  0  0  0  0  0  0  0  0  0
   -1.0781    1.1329   -1.6854 H   0  0  0  0  0  0  0  0  0  0  0  0
   -1.4184    2.1786   -0.2944 H   0  0  0  0  0  0  0  0  0  0  0  0
  1  2  2  0
  2  3  1  0
  3  4  1  0
  4  5  1  0
  5  6  2  0
  6  7  1  0
  7  8  1  0
  8  2  1  0
  3  9  1  0
  3 10  1  0
  4 11  1  0
  4 12  1  0
  5 13  1  0
  6 14  1  0
  7 15  1  0
  7 16  1  0
  8 17  1  0
  8 18  1  0
M  END
