
     RDKit          3D

 17 19  0  0  0  0  0  0  0  0999 V2000
   -1.2502   -0.3517    2.4598 O   0  0  0  0  0  0  0  0  0  0  0  0
   -0.8657   -0.3086    1.3252 C   0  0  0  0  0  0  0  0  0  0  0  0
   -0.4261   -1.2213    0.2038 C   0  0  0  0  0  0  0  0  0  0  0  0
   -1.1586   -0.2435   -0.6900 C   0  0  0  0  0  0  0  0  0  0  0  0
   -0.5887    0.7665    0.3171 C   0  0  0  0  0  0  0  0  0  0  0  0
   -1.2110    1.9371    0.4439 O   0  0  0  0  0  0  0  0  0  0  0  0
    0.8930    0.6859    0.1816 C   0  0  0  0  0  0  0  0  0  0  0  0
    1.5768    0.0139   -0.9204 C   0  0  0  0  0  0  0  0  0  0  0  0
    1.0285   -0.8793    0.1134 C   0  0  0  0  0  0  0  0  0  0  0  0
   -0.7476   -2.2328    0.2417 H   0  0  0  0  0  0  0  0  0  0  0  0
   -2.2382   -0.3715   -0.5739 H   0  0  0  0  0  0  0  0  0  0  0  0
   -0.8114   -0.1394   -1.7092 H   0  0  0  0  0  0  0  0  0  0  0  0
   -1.2530    2.4149   -0.4053 H   0  0  0  0  0  0  0  0  0  0  0  0
    1.4678    1.1672    0.9829 H   0  0  0  0  0  0  0  0  0  0  0  0
    1.2058   -0.0225   -1.9597 H   0  0  0  0  0  0  0  0  0  0  0  0
    2.7001    0.1002   -0.8976 H   0  0  0  0  0  0  0  0  0  0  0  0
    1.6783   -1.3149    0.8867 H   0  0  0  0  0  0  0  0  0  0  0  0
  1  2  2  0
  2  3  1  0
  3  4  1  0
  4  5  1  0
  5  6  1  0
  5  7  1  0
  7  8  1  0
  8  9  1  0
  5  2  1  0
  9  7  1  0
  9  3  1  0
  3 10  1  0
  4 11  1  0
  4 12  1  0
  6 13  1  0
  7 14  1  0
  8 15  1  0
  8 16  1  0
  9 17  1  0
M  END
