
     RDKit          3D

 16 16  0  0  0  0  0  0  0  0999 V2000
   -0.7055   -1.8974    1.2599 O   0  0  0  0  0  0  0  0  0  0  0  0
   -0.4736   -1.1353    0.3382 C   0  0  0  0  0  0  0  0  0  0  0  0
    0.8289   -1.1541   -0.3465 C   0  0  0  0  0  0  0  0  0  0  0  0
    1.5148    0.1687   -0.0595 C   0  0  0  0  0  0  0  0  0  0  0  0
    0.7917    0.9260    0.8743 O   0  0  0  0  0  0  0  0  0  0  0  0
   -0.3117    1.5415    0.3281 C   0  0  0  0  0  0  0  0  0  0  0  0
   -1.5212    0.9512    0.7390 O   0  0  0  0  0  0  0  0  0  0  0  0
   -1.6224   -0.2436    0.0277 C   0  0  0  0  0  0  0  0  0  0  0  0
    1.4493   -2.0238   -0.1174 H   0  0  0  0  0  0  0  0  0  0  0  0
    0.6195   -1.1784   -1.4542 H   0  0  0  0  0  0  0  0  0  0  0  0
    1.7047    0.7414   -0.9848 H   0  0  0  0  0  0  0  0  0  0  0  0
    2.5173   -0.0221    0.4235 H   0  0  0  0  0  0  0  0  0  0  0  0
   -0.2370    1.4868   -0.7668 H   0  0  0  0  0  0  0  0  0  0  0  0
   -0.3903    2.6248    0.5840 H   0  0  0  0  0  0  0  0  0  0  0  0
   -2.5431   -0.7996    0.2149 H   0  0  0  0  0  0  0  0  0  0  0  0
   -1.6213    0.0138   -1.0605 H   0  0  0  0  0  0  0  0  0  0  0  0
  1  2  2  0
  2  3  1  0
  3  4  1  0
  4  5  1  0
  5  6  1  0
  6  7  1  0
  7  8  1  0
  8  2  1  0
  3  9  1  0
  3 10  1  0
  4 11  1  0
  4 12  1  0
  6 13  1  0
  6 14  1  0
  8 15  1  0
  8 16  1  0
M  END
