
     RDKit          3D

 17 18  0  0  0  0  0  0  0  0999 V2000
    1.0327    0.7003   -1.8662 O   0  0  0  0  0  0  0  0  0  0  0  0
    0.6182    0.3526   -0.7963 C   0  0  0  0  0  0  0  0  0  0  0  0
    1.4461    0.5471    0.4687 C   0  0  0  0  0  0  0  0  0  0  0  0
    2.7973    0.5554    0.1659 O   0  0  0  0  0  0  0  0  0  0  0  0
    1.1102   -0.8103    1.0504 C   0  0  0  0  0  0  0  0  0  0  0  0
   -0.0505   -1.1989    0.5245 C   0  0  0  0  0  0  0  0  0  0  0  0
   -0.6034   -0.2721   -0.3766 C   0  0  0  0  0  0  0  0  0  0  0  0
   -1.5784    0.5753   -0.9492 C   0  0  0  0  0  0  0  0  0  0  0  0
   -1.8853    0.0122    0.2467 C   0  0  0  0  0  0  0  0  0  0  0  0
    1.0886    1.3693    1.0734 H   0  0  0  0  0  0  0  0  0  0  0  0
    2.9482    0.0224   -0.6663 H   0  0  0  0  0  0  0  0  0  0  0  0
    1.7607   -1.2929    1.7580 H   0  0  0  0  0  0  0  0  0  0  0  0
   -0.4612   -2.2019    0.8301 H   0  0  0  0  0  0  0  0  0  0  0  0
   -1.5833    1.7114   -0.9997 H   0  0  0  0  0  0  0  0  0  0  0  0
   -2.0416    0.2129   -1.9220 H   0  0  0  0  0  0  0  0  0  0  0  0
   -2.5868   -0.8799    0.2717 H   0  0  0  0  0  0  0  0  0  0  0  0
   -2.0113    0.5971    1.1871 H   0  0  0  0  0  0  0  0  0  0  0  0
  1  2  2  0
  2  3  1  0
  3  4  1  0
  3  5  1  0
  5  6  2  0
  6  7  1  0
  7  8  1  0
  8  9  1  0
  7  2  1  0
  9  7  1  0
  3 10  1  0
  4 11  1  0
  5 12  1  0
  6 13  1  0
  8 14  1  0
  8 15  1  0
  9 16  1  0
  9 17  1  0
M  END
