
     RDKit          3D

 12 14  0  0  0  0  0  0  0  0999 V2000
    2.6931   -0.0294   -0.5022 O   0  0  0  0  0  0  0  0  0  0  0  0
    1.4757    0.1240   -0.2423 C   0  0  0  0  0  0  0  0  0  0  0  0
    0.9316    1.2625    0.3599 O   0  0  0  0  0  0  0  0  0  0  0  0
   -0.4345    0.8925    0.5276 C   0  0  0  0  0  0  0  0  0  0  0  0
   -0.4622   -0.5788    0.8085 C   0  0  0  0  0  0  0  0  0  0  0  0
   -1.6174   -0.6251    0.0453 O   0  0  0  0  0  0  0  0  0  0  0  0
   -0.8143    0.2095   -0.7220 C   0  0  0  0  0  0  0  0  0  0  0  0
    0.3066   -0.7348   -0.4497 C   0  0  0  0  0  0  0  0  0  0  0  0
   -1.0881    1.5537    1.0425 H   0  0  0  0  0  0  0  0  0  0  0  0
   -0.3065   -1.0262    1.6998 H   0  0  0  0  0  0  0  0  0  0  0  0
   -1.0661    0.6147   -1.6148 H   0  0  0  0  0  0  0  0  0  0  0  0
    0.3820   -1.6624   -0.9526 H   0  0  0  0  0  0  0  0  0  0  0  0
  1  2  2  0
  2  3  1  0
  3  4  1  0
  4  5  1  0
  5  6  1  0
  6  7  1  0
  7  8  1  0
  8  2  1  0
  7  4  1  0
  8  5  1  0
  4  9  1  0
  5 10  1  0
  7 11  1  0
  8 12  1  0
M  END
