
     RDKit          3D

 21 22  0  0  0  0  0  0  0  0999 V2000
   -2.6333   -0.7061   -1.3137 O   0  0  0  0  0  0  0  0  0  0  0  0
   -1.7763   -0.4104   -0.5007 C   0  0  0  0  0  0  0  0  0  0  0  0
   -1.2112    0.8205    0.1209 C   0  0  0  0  0  0  0  0  0  0  0  0
   -0.0573    1.3755   -0.6398 C   0  0  0  0  0  0  0  0  0  0  0  0
    1.2828    0.9902   -0.1156 C   0  0  0  0  0  0  0  0  0  0  0  0
    1.5561   -0.4538   -0.0203 C   0  0  0  0  0  0  0  0  0  0  0  0
    0.4505   -1.3629   -0.4337 C   0  0  0  0  0  0  0  0  0  0  0  0
   -0.8213   -1.1912    0.3136 C   0  0  0  0  0  0  0  0  0  0  0  0
   -0.7925   -0.0386    1.2928 C   0  0  0  0  0  0  0  0  0  0  0  0
   -2.0173    1.5493    0.3850 H   0  0  0  0  0  0  0  0  0  0  0  0
   -0.0980    1.1412   -1.7316 H   0  0  0  0  0  0  0  0  0  0  0  0
   -0.1318    2.4902   -0.5832 H   0  0  0  0  0  0  0  0  0  0  0  0
    2.0437    1.4608   -0.8062 H   0  0  0  0  0  0  0  0  0  0  0  0
    1.4601    1.5252    0.8638 H   0  0  0  0  0  0  0  0  0  0  0  0
    2.4589   -0.7472   -0.6349 H   0  0  0  0  0  0  0  0  0  0  0  0
    1.8548   -0.7493    1.0288 H   0  0  0  0  0  0  0  0  0  0  0  0
    0.3043   -1.2749   -1.5273 H   0  0  0  0  0  0  0  0  0  0  0  0
    0.8014   -2.4127   -0.2635 H   0  0  0  0  0  0  0  0  0  0  0  0
   -1.2362   -2.0860    0.8137 H   0  0  0  0  0  0  0  0  0  0  0  0
    0.1895    0.1906    1.7361 H   0  0  0  0  0  0  0  0  0  0  0  0
   -1.6269   -0.1103    2.0157 H   0  0  0  0  0  0  0  0  0  0  0  0
  1  2  2  0
  2  3  1  0
  3  4  1  0
  4  5  1  0
  5  6  1  0
  6  7  1  0
  7  8  1  0
  8  9  1  0
  8  2  1  0
  9  3  1  0
  3 10  1  0
  4 11  1  0
  4 12  1  0
  5 13  1  0
  5 14  1  0
  6 15  1  0
  6 16  1  0
  7 17  1  0
  7 18  1  0
  8 19  1  0
  9 20  1  0
  9 21  1  0
M  END
