
     RDKit          3D

 17 18  0  0  0  0  0  0  0  0999 V2000
   -0.4060   -1.1054   -2.3794 O   0  0  0  0  0  0  0  0  0  0  0  0
   -0.2406   -0.5908   -1.3024 C   0  0  0  0  0  0  0  0  0  0  0  0
   -1.2170    0.2182   -0.5390 C   0  0  0  0  0  0  0  0  0  0  0  0
   -1.4367   -0.4653    0.7517 C   0  0  0  0  0  0  0  0  0  0  0  0
   -0.3659   -0.3200    1.5323 C   0  0  0  0  0  0  0  0  0  0  0  0
    0.6510    0.3521    0.6827 C   0  0  0  0  0  0  0  0  0  0  0  0
   -0.2636    1.3371   -0.0724 C   0  0  0  0  0  0  0  0  0  0  0  0
    0.9722   -0.6137   -0.4330 C   0  0  0  0  0  0  0  0  0  0  0  0
    2.1227   -0.3002   -1.1182 O   0  0  0  0  0  0  0  0  0  0  0  0
   -2.0698    0.5648   -1.0597 H   0  0  0  0  0  0  0  0  0  0  0  0
   -2.3475   -0.9974    0.9950 H   0  0  0  0  0  0  0  0  0  0  0  0
   -0.1994   -0.6023    2.5614 H   0  0  0  0  0  0  0  0  0  0  0  0
    1.4701    0.8054    1.1781 H   0  0  0  0  0  0  0  0  0  0  0  0
   -0.7968    1.9943    0.6073 H   0  0  0  0  0  0  0  0  0  0  0  0
    0.2481    1.8111   -0.9064 H   0  0  0  0  0  0  0  0  0  0  0  0
    1.0025   -1.6514   -0.0066 H   0  0  0  0  0  0  0  0  0  0  0  0
    2.8767   -0.4364   -0.4915 H   0  0  0  0  0  0  0  0  0  0  0  0
  1  2  2  0
  2  3  1  0
  3  4  1  0
  4  5  2  0
  5  6  1  0
  6  7  1  0
  6  8  1  0
  8  9  1  0
  8  2  1  0
  7  3  1  0
  3 10  1  0
  4 11  1  0
  5 12  1  0
  6 13  1  0
  7 14  1  0
  7 15  1  0
  8 16  1  0
  9 17  1  0
M  END
