
     RDKit          3D

 17 17  0  0  0  0  0  0  0  0999 V2000
    2.3029    1.2700   -0.5753 O   0  0  0  0  0  0  0  0  0  0  0  0
    1.2633    0.8213   -0.1113 C   0  0  0  0  0  0  0  0  0  0  0  0
    1.4940   -0.4569    0.6471 C   0  0  0  0  0  0  0  0  0  0  0  0
    0.6565   -1.4919   -0.0193 C   0  0  0  0  0  0  0  0  0  0  0  0
   -0.6632   -1.4709   -0.1712 C   0  0  0  0  0  0  0  0  0  0  0  0
   -1.6076   -0.4151    0.2859 C   0  0  0  0  0  0  0  0  0  0  0  0
   -1.1954    0.8499   -0.3794 C   0  0  0  0  0  0  0  0  0  0  0  0
   -2.0883    1.3445   -1.0434 O   0  0  0  0  0  0  0  0  0  0  0  0
    0.0610    1.5966   -0.3838 C   0  0  0  0  0  0  0  0  0  0  0  0
    1.0126   -0.2781    1.6521 H   0  0  0  0  0  0  0  0  0  0  0  0
    2.5374   -0.7184    0.7207 H   0  0  0  0  0  0  0  0  0  0  0  0
    1.1730   -2.3767   -0.4364 H   0  0  0  0  0  0  0  0  0  0  0  0
   -1.1524   -2.2939   -0.6792 H   0  0  0  0  0  0  0  0  0  0  0  0
   -1.3940   -0.2795    1.3849 H   0  0  0  0  0  0  0  0  0  0  0  0
   -2.6457   -0.6788    0.0922 H   0  0  0  0  0  0  0  0  0  0  0  0
    0.2253    2.1452   -1.3594 H   0  0  0  0  0  0  0  0  0  0  0  0
    0.0207    2.4325    0.3757 H   0  0  0  0  0  0  0  0  0  0  0  0
  1  2  2  0
  2  3  1  0
  3  4  1  0
  4  5  2  0
  5  6  1  0
  6  7  1  0
  7  8  2  0
  7  9  1  0
  9  2  1  0
  3 10  1  0
  3 11  1  0
  4 12  1  0
  5 13  1  0
  6 14  1  0
  6 15  1  0
  9 16  1  0
  9 17  1  0
M  END
