
     RDKit          3D

 19 20  0  0  0  0  0  0  0  0999 V2000
    2.9961    1.3678    0.1870 O   0  0  0  0  0  0  0  0  0  0  0  0
    1.8599    0.8055    0.3443 C   0  0  0  0  0  0  0  0  0  0  0  0
    1.7576   -0.5636    0.8300 C   0  0  0  0  0  0  0  0  0  0  0  0
    0.8042   -1.3251    0.3181 C   0  0  0  0  0  0  0  0  0  0  0  0
   -0.1043   -0.7885   -0.7002 C   0  0  0  0  0  0  0  0  0  0  0  0
   -1.5862   -1.0793   -0.4320 C   0  0  0  0  0  0  0  0  0  0  0  0
   -1.6206    0.2872    0.2660 C   0  0  0  0  0  0  0  0  0  0  0  0
   -0.4235    0.6558   -0.5907 C   0  0  0  0  0  0  0  0  0  0  0  0
    0.5992    1.5247    0.0389 C   0  0  0  0  0  0  0  0  0  0  0  0
    2.4623   -0.8995    1.5817 H   0  0  0  0  0  0  0  0  0  0  0  0
    0.7586   -2.3378    0.7045 H   0  0  0  0  0  0  0  0  0  0  0  0
    0.1414   -1.1754   -1.7101 H   0  0  0  0  0  0  0  0  0  0  0  0
   -1.7370   -1.9328    0.2591 H   0  0  0  0  0  0  0  0  0  0  0  0
   -2.2050   -1.0749   -1.3464 H   0  0  0  0  0  0  0  0  0  0  0  0
   -2.5126    0.8717   -0.0285 H   0  0  0  0  0  0  0  0  0  0  0  0
   -1.4465    0.2554    1.3447 H   0  0  0  0  0  0  0  0  0  0  0  0
   -0.7300    1.0662   -1.5783 H   0  0  0  0  0  0  0  0  0  0  0  0
    0.7873    2.4724   -0.5242 H   0  0  0  0  0  0  0  0  0  0  0  0
    0.1990    1.8701    1.0361 H   0  0  0  0  0  0  0  0  0  0  0  0
  1  2  2  0
  2  3  1  0
  3  4  2  0
  4  5  1  0
  5  6  1  0
  6  7  1  0
  7  8  1  0
  8  9  1  0
  9  2  1  0
  8  5  1  0
  3 10  1  0
  4 11  1  0
  5 12  1  0
  6 13  1  0
  6 14  1  0
  7 15  1  0
  7 16  1  0
  8 17  1  0
  9 18  1  0
  9 19  1  0
M  END
