
     RDKit          3D

 17 19  0  0  0  0  0  0  0  0999 V2000
   -0.3068    1.2327   -2.1824 O   0  0  0  0  0  0  0  0  0  0  0  0
   -0.1074    0.6923   -1.1077 C   0  0  0  0  0  0  0  0  0  0  0  0
    1.2103    0.1023   -0.7443 C   0  0  0  0  0  0  0  0  0  0  0  0
    1.8904    0.7204    0.4389 C   0  0  0  0  0  0  0  0  0  0  0  0
    1.0805   -0.4995    0.5997 C   0  0  0  0  0  0  0  0  0  0  0  0
   -0.3796   -0.4589    0.9463 C   0  0  0  0  0  0  0  0  0  0  0  0
   -1.0401   -1.5176    0.2951 O   0  0  0  0  0  0  0  0  0  0  0  0
   -1.9665   -0.6591   -0.2601 C   0  0  0  0  0  0  0  0  0  0  0  0
   -1.0477    0.4969    0.0263 C   0  0  0  0  0  0  0  0  0  0  0  0
    1.8029   -0.4105   -1.5264 H   0  0  0  0  0  0  0  0  0  0  0  0
    2.9788    0.6139    0.5428 H   0  0  0  0  0  0  0  0  0  0  0  0
    1.5162    1.7193    0.7576 H   0  0  0  0  0  0  0  0  0  0  0  0
    1.5685   -1.4664    0.8387 H   0  0  0  0  0  0  0  0  0  0  0  0
   -0.6511   -0.4566    1.9988 H   0  0  0  0  0  0  0  0  0  0  0  0
   -2.9159   -0.6847    0.2704 H   0  0  0  0  0  0  0  0  0  0  0  0
   -2.1317   -0.8163   -1.3441 H   0  0  0  0  0  0  0  0  0  0  0  0
   -1.5008    1.3919    0.4503 H   0  0  0  0  0  0  0  0  0  0  0  0
  1  2  2  0
  2  3  1  0
  3  4  1  0
  4  5  1  0
  5  6  1  0
  6  7  1  0
  7  8  1  0
  8  9  1  0
  9  2  1  0
  5  3  1  0
  9  6  1  0
  3 10  1  0
  4 11  1  0
  4 12  1  0
  5 13  1  0
  6 14  1  0
  8 15  1  0
  8 16  1  0
  9 17  1  0
M  END
