
     RDKit          3D

 15 16  0  0  0  0  0  0  0  0999 V2000
    2.3046   -1.8658   -0.2485 O   0  0  0  0  0  0  0  0  0  0  0  0
    1.3090   -1.0980   -0.1949 C   0  0  0  0  0  0  0  0  0  0  0  0
    1.5864    0.3582   -0.0719 C   0  0  0  0  0  0  0  0  0  0  0  0
    0.7338    1.3601   -0.0752 C   0  0  0  0  0  0  0  0  0  0  0  0
   -0.7026    1.2502   -0.2038 C   0  0  0  0  0  0  0  0  0  0  0  0
   -1.6530    1.3195    0.7360 O   0  0  0  0  0  0  0  0  0  0  0  0
   -1.0983    0.1146    0.7662 C   0  0  0  0  0  0  0  0  0  0  0  0
   -1.2658   -1.0741   -0.0877 C   0  0  0  0  0  0  0  0  0  0  0  0
    0.0330   -1.6506   -0.2531 O   0  0  0  0  0  0  0  0  0  0  0  0
    2.6460    0.5478    0.0301 H   0  0  0  0  0  0  0  0  0  0  0  0
    1.1539    2.3282    0.0265 H   0  0  0  0  0  0  0  0  0  0  0  0
   -1.0487    1.1548   -1.2608 H   0  0  0  0  0  0  0  0  0  0  0  0
   -0.4195   -0.0734    1.6354 H   0  0  0  0  0  0  0  0  0  0  0  0
   -1.9654   -1.8321    0.3211 H   0  0  0  0  0  0  0  0  0  0  0  0
   -1.6134   -0.8394   -1.1195 H   0  0  0  0  0  0  0  0  0  0  0  0
  1  2  2  0
  2  3  1  0
  3  4  2  0
  4  5  1  0
  5  6  1  0
  6  7  1  0
  7  8  1  0
  8  9  1  0
  9  2  1  0
  7  5  1  0
  3 10  1  0
  4 11  1  0
  5 12  1  0
  7 13  1  0
  8 14  1  0
  8 15  1  0
M  END
