
     RDKit          3D

 17 18  0  0  0  0  0  0  0  0999 V2000
   -1.8439    1.4254   -1.0718 O   0  0  0  0  0  0  0  0  0  0  0  0
   -1.0840    0.6499   -0.5566 C   0  0  0  0  0  0  0  0  0  0  0  0
   -1.1804   -0.8303   -0.5845 C   0  0  0  0  0  0  0  0  0  0  0  0
    0.1488   -1.2289    0.0305 C   0  0  0  0  0  0  0  0  0  0  0  0
    1.2545   -0.6800   -0.7909 C   0  0  0  0  0  0  0  0  0  0  0  0
    1.2845    0.6363   -0.6537 C   0  0  0  0  0  0  0  0  0  0  0  0
    0.1074    1.0002    0.2142 C   0  0  0  0  0  0  0  0  0  0  0  0
    0.1679    2.1949    0.7976 O   0  0  0  0  0  0  0  0  0  0  0  0
    0.1788   -0.1990    1.1806 C   0  0  0  0  0  0  0  0  0  0  0  0
   -1.9818   -1.2286    0.0622 H   0  0  0  0  0  0  0  0  0  0  0  0
   -1.2965   -1.2328   -1.6068 H   0  0  0  0  0  0  0  0  0  0  0  0
    0.2361   -2.2389    0.3503 H   0  0  0  0  0  0  0  0  0  0  0  0
    1.9220   -1.2629   -1.3987 H   0  0  0  0  0  0  0  0  0  0  0  0
    1.9811    1.3196   -1.0593 H   0  0  0  0  0  0  0  0  0  0  0  0
   -0.3485    2.2315    1.6162 H   0  0  0  0  0  0  0  0  0  0  0  0
   -0.6959   -0.2691    1.8154 H   0  0  0  0  0  0  0  0  0  0  0  0
    1.1498   -0.2873    1.6552 H   0  0  0  0  0  0  0  0  0  0  0  0
  1  2  2  0
  2  3  1  0
  3  4  1  0
  4  5  1  0
  5  6  2  0
  6  7  1  0
  7  8  1  0
  7  9  1  0
  7  2  1  0
  9  4  1  0
  3 10  1  0
  3 11  1  0
  4 12  1  0
  5 13  1  0
  6 14  1  0
  8 15  1  0
  9 16  1  0
  9 17  1  0
M  END
