
     RDKit          3D

 19 19  0  0  0  0  0  0  0  0999 V2000
   -2.4605    1.7729    0.3925 O   0  0  0  0  0  0  0  0  0  0  0  0
   -1.4591    1.0893    0.0492 C   0  0  0  0  0  0  0  0  0  0  0  0
   -0.2373    1.7847   -0.2352 C   0  0  0  0  0  0  0  0  0  0  0  0
    0.9597    1.2484   -0.4209 C   0  0  0  0  0  0  0  0  0  0  0  0
    1.4930   -0.1086   -0.4184 C   0  0  0  0  0  0  0  0  0  0  0  0
    2.4121   -0.3219    0.6225 O   0  0  0  0  0  0  0  0  0  0  0  0
    0.4942   -1.1987   -0.3816 C   0  0  0  0  0  0  0  0  0  0  0  0
   -0.5433   -1.0361    0.6871 C   0  0  0  0  0  0  0  0  0  0  0  0
   -1.7443   -0.3690    0.0017 C   0  0  0  0  0  0  0  0  0  0  0  0
   -0.3291    2.8631   -0.3000 H   0  0  0  0  0  0  0  0  0  0  0  0
    1.7119    2.0117   -0.6216 H   0  0  0  0  0  0  0  0  0  0  0  0
    2.0961   -0.2305   -1.3659 H   0  0  0  0  0  0  0  0  0  0  0  0
    1.9686   -0.2734    1.4833 H   0  0  0  0  0  0  0  0  0  0  0  0
    0.0359   -1.3424   -1.3959 H   0  0  0  0  0  0  0  0  0  0  0  0
    1.0436   -2.1556   -0.1496 H   0  0  0  0  0  0  0  0  0  0  0  0
   -0.8285   -2.0013    1.1297 H   0  0  0  0  0  0  0  0  0  0  0  0
   -0.1405   -0.3622    1.4852 H   0  0  0  0  0  0  0  0  0  0  0  0
   -1.7938   -0.7229   -1.0659 H   0  0  0  0  0  0  0  0  0  0  0  0
   -2.6789   -0.6478    0.5038 H   0  0  0  0  0  0  0  0  0  0  0  0
  1  2  2  0
  2  3  1  0
  3  4  2  0
  4  5  1  0
  5  6  1  0
  5  7  1  0
  7  8  1  0
  8  9  1  0
  9  2  1  0
  3 10  1  0
  4 11  1  0
  5 12  1  0
  6 13  1  0
  7 14  1  0
  7 15  1  0
  8 16  1  0
  8 17  1  0
  9 18  1  0
  9 19  1  0
M  END
