
     RDKit          3D

 15 16  0  0  0  0  0  0  0  0999 V2000
    0.3890   -1.6280    1.6295 O   0  0  0  0  0  0  0  0  0  0  0  0
    0.0067   -0.7478    0.8906 C   0  0  0  0  0  0  0  0  0  0  0  0
   -1.4070   -0.3418    0.7189 C   0  0  0  0  0  0  0  0  0  0  0  0
   -1.4484    0.1063   -0.7247 C   0  0  0  0  0  0  0  0  0  0  0  0
   -0.1676    0.8303   -0.8515 C   0  0  0  0  0  0  0  0  0  0  0  0
    0.0218    1.8036   -1.5266 O   0  0  0  0  0  0  0  0  0  0  0  0
    0.7894    0.1324   -0.0077 C   0  0  0  0  0  0  0  0  0  0  0  0
    2.1616    0.2493    0.0935 C   0  0  0  0  0  0  0  0  0  0  0  0
    1.7031   -0.6865   -0.8648 O   0  0  0  0  0  0  0  0  0  0  0  0
   -2.1224   -1.1559    0.9395 H   0  0  0  0  0  0  0  0  0  0  0  0
   -1.5672    0.5485    1.3760 H   0  0  0  0  0  0  0  0  0  0  0  0
   -2.3316    0.7348   -0.9447 H   0  0  0  0  0  0  0  0  0  0  0  0
   -1.4454   -0.8240   -1.3554 H   0  0  0  0  0  0  0  0  0  0  0  0
    2.7193    1.1215   -0.3557 H   0  0  0  0  0  0  0  0  0  0  0  0
    2.6987   -0.1427    0.9830 H   0  0  0  0  0  0  0  0  0  0  0  0
  1  2  2  0
  2  3  1  0
  3  4  1  0
  4  5  1  0
  5  6  2  0
  5  7  1  0
  7  8  1  0
  8  9  1  0
  7  2  1  0
  9  7  1  0
  3 10  1  0
  3 11  1  0
  4 12  1  0
  4 13  1  0
  8 14  1  0
  8 15  1  0
M  END
