
     RDKit          3D

 17 18  0  0  0  0  0  0  0  0999 V2000
   -1.8263   -0.5724   -1.9853 O   0  0  0  0  0  0  0  0  0  0  0  0
   -1.3990   -0.1433   -0.9247 C   0  0  0  0  0  0  0  0  0  0  0  0
   -1.3153    1.1690   -0.2383 C   0  0  0  0  0  0  0  0  0  0  0  0
   -0.3488    0.6460    0.7543 C   0  0  0  0  0  0  0  0  0  0  0  0
    0.6772   -0.3587    0.4674 C   0  0  0  0  0  0  0  0  0  0  0  0
    1.5639   -0.2853   -0.7541 C   0  0  0  0  0  0  0  0  0  0  0  0
    2.2727    0.9292   -0.6646 O   0  0  0  0  0  0  0  0  0  0  0  0
   -0.7217   -0.7352    0.2614 C   0  0  0  0  0  0  0  0  0  0  0  0
   -1.4128   -1.5909    1.0928 O   0  0  0  0  0  0  0  0  0  0  0  0
   -1.0360    2.0216   -0.8533 H   0  0  0  0  0  0  0  0  0  0  0  0
   -2.3145    1.3798    0.2381 H   0  0  0  0  0  0  0  0  0  0  0  0
   -0.5390    0.9203    1.8111 H   0  0  0  0  0  0  0  0  0  0  0  0
    1.1833   -0.8108    1.3427 H   0  0  0  0  0  0  0  0  0  0  0  0
    2.2696   -1.1274   -0.7505 H   0  0  0  0  0  0  0  0  0  0  0  0
    0.9205   -0.2283   -1.6456 H   0  0  0  0  0  0  0  0  0  0  0  0
    2.7567    0.8709    0.2188 H   0  0  0  0  0  0  0  0  0  0  0  0
   -0.7306   -2.0843    1.6297 H   0  0  0  0  0  0  0  0  0  0  0  0
  1  2  2  0
  2  3  1  0
  3  4  1  0
  4  5  1  0
  5  6  1  0
  6  7  1  0
  5  8  1  0
  8  9  1  0
  8  2  1  0
  8  4  1  0
  3 10  1  0
  3 11  1  0
  4 12  1  0
  5 13  1  0
  6 14  1  0
  6 15  1  0
  7 16  1  0
  9 17  1  0
M  END
