
     RDKit          3D

 15 16  0  0  0  0  0  0  0  0999 V2000
   -3.1347    1.5788   -0.0265 O   0  0  0  0  0  0  0  0  0  0  0  0
   -2.2760    0.6692    0.1344 C   0  0  0  0  0  0  0  0  0  0  0  0
   -2.3374   -0.6773   -0.1924 O   0  0  0  0  0  0  0  0  0  0  0  0
   -1.0075   -1.0773   -0.4286 C   0  0  0  0  0  0  0  0  0  0  0  0
   -0.1523   -0.1801    0.4431 C   0  0  0  0  0  0  0  0  0  0  0  0
    0.9699    0.3401   -0.3685 C   0  0  0  0  0  0  0  0  0  0  0  0
    2.3222    0.3946    0.3160 C   0  0  0  0  0  0  0  0  0  0  0  0
    2.0169   -0.4382   -0.7996 O   0  0  0  0  0  0  0  0  0  0  0  0
   -1.0439    0.8878    0.7057 O   0  0  0  0  0  0  0  0  0  0  0  0
   -0.7986   -2.1204   -0.1922 H   0  0  0  0  0  0  0  0  0  0  0  0
   -0.8113   -0.9104   -1.5144 H   0  0  0  0  0  0  0  0  0  0  0  0
    0.1260   -0.7378    1.3482 H   0  0  0  0  0  0  0  0  0  0  0  0
    0.7099    1.1852   -1.0464 H   0  0  0  0  0  0  0  0  0  0  0  0
    2.4553   -0.1888    1.2342 H   0  0  0  0  0  0  0  0  0  0  0  0
    2.9615    1.2746    0.1274 H   0  0  0  0  0  0  0  0  0  0  0  0
  1  2  2  0
  2  3  1  0
  3  4  1  0
  4  5  1  0
  5  6  1  0
  6  7  1  0
  7  8  1  0
  5  9  1  0
  9  2  1  0
  8  6  1  0
  4 10  1  0
  4 11  1  0
  5 12  1  0
  6 13  1  0
  7 14  1  0
  7 15  1  0
M  END
