
     RDKit          3D

 17 18  0  0  0  0  0  0  0  0999 V2000
   -2.1481    1.8908    1.0421 O   0  0  0  0  0  0  0  0  0  0  0  0
   -1.1737    1.2584    0.5948 C   0  0  0  0  0  0  0  0  0  0  0  0
    0.0893    1.5982    1.0144 O   0  0  0  0  0  0  0  0  0  0  0  0
    1.2124    1.1873    0.2909 C   0  0  0  0  0  0  0  0  0  0  0  0
    1.1134   -0.1699   -0.3149 C   0  0  0  0  0  0  0  0  0  0  0  0
    1.5059   -1.1396    0.6367 O   0  0  0  0  0  0  0  0  0  0  0  0
   -0.2207   -0.5537   -0.8226 C   0  0  0  0  0  0  0  0  0  0  0  0
   -1.1456   -1.2188    0.1578 C   0  0  0  0  0  0  0  0  0  0  0  0
   -1.3815    0.1859   -0.3504 C   0  0  0  0  0  0  0  0  0  0  0  0
    2.0830    1.1699    1.0038 H   0  0  0  0  0  0  0  0  0  0  0  0
    1.4799    1.9827   -0.4633 H   0  0  0  0  0  0  0  0  0  0  0  0
    1.8661   -0.2404   -1.1249 H   0  0  0  0  0  0  0  0  0  0  0  0
    1.9021   -1.9431    0.1716 H   0  0  0  0  0  0  0  0  0  0  0  0
   -0.2673   -0.9652   -1.8519 H   0  0  0  0  0  0  0  0  0  0  0  0
   -0.8219   -1.3168    1.2259 H   0  0  0  0  0  0  0  0  0  0  0  0
   -1.8317   -2.0279   -0.1851 H   0  0  0  0  0  0  0  0  0  0  0  0
   -2.2617    0.3021   -1.0248 H   0  0  0  0  0  0  0  0  0  0  0  0
  1  2  2  0
  2  3  1  0
  3  4  1  0
  4  5  1  0
  5  6  1  0
  5  7  1  0
  7  8  1  0
  8  9  1  0
  9  2  1  0
  9  7  1  0
  4 10  1  0
  4 11  1  0
  5 12  1  0
  6 13  1  0
  7 14  1  0
  8 15  1  0
  8 16  1  0
  9 17  1  0
M  END
