
     RDKit          3D

 17 19  0  0  0  0  0  0  0  0999 V2000
   -0.4474   -0.1641   -2.4520 O   0  0  0  0  0  0  0  0  0  0  0  0
   -0.4316   -0.0977   -1.2851 C   0  0  0  0  0  0  0  0  0  0  0  0
   -0.4056   -1.1552   -0.2561 C   0  0  0  0  0  0  0  0  0  0  0  0
   -1.4939   -0.6107    0.6517 C   0  0  0  0  0  0  0  0  0  0  0  0
   -1.6108    0.7023    0.4684 C   0  0  0  0  0  0  0  0  0  0  0  0
   -0.4317    1.0767   -0.3899 C   0  0  0  0  0  0  0  0  0  0  0  0
    0.7725    0.7449    0.4678 C   0  0  0  0  0  0  0  0  0  0  0  0
    1.8837    0.0782   -0.2112 C   0  0  0  0  0  0  0  0  0  0  0  0
    0.8878   -0.8072    0.4265 C   0  0  0  0  0  0  0  0  0  0  0  0
   -0.5488   -2.1593   -0.5676 H   0  0  0  0  0  0  0  0  0  0  0  0
   -2.1006   -1.1686    1.3505 H   0  0  0  0  0  0  0  0  0  0  0  0
   -2.3290    1.4266    0.8020 H   0  0  0  0  0  0  0  0  0  0  0  0
   -0.4559    2.0380   -0.8255 H   0  0  0  0  0  0  0  0  0  0  0  0
    0.7968    1.1513    1.4754 H   0  0  0  0  0  0  0  0  0  0  0  0
    1.9597    0.1523   -1.3122 H   0  0  0  0  0  0  0  0  0  0  0  0
    2.8757    0.1113    0.2848 H   0  0  0  0  0  0  0  0  0  0  0  0
    1.0792   -1.3189    1.3726 H   0  0  0  0  0  0  0  0  0  0  0  0
  1  2  2  0
  2  3  1  0
  3  4  1  0
  4  5  2  0
  5  6  1  0
  6  7  1  0
  7  8  1  0
  8  9  1  0
  6  2  1  0
  9  7  1  0
  9  3  1  0
  3 10  1  0
  4 11  1  0
  5 12  1  0
  6 13  1  0
  7 14  1  0
  8 15  1  0
  8 16  1  0
  9 17  1  0
M  END
