
     RDKit          3D

 14 15  0  0  0  0  0  0  0  0999 V2000
   -3.2013   -0.0041   -0.8228 O   0  0  0  0  0  0  0  0  0  0  0  0
   -2.0845   -0.1282   -0.2852 C   0  0  0  0  0  0  0  0  0  0  0  0
   -1.0420    0.7196    0.3673 C   0  0  0  0  0  0  0  0  0  0  0  0
   -0.3093   -0.5367    0.7455 C   0  0  0  0  0  0  0  0  0  0  0  0
    1.0602   -0.7002    0.1297 C   0  0  0  0  0  0  0  0  0  0  0  0
    1.9522    0.3754   -0.1621 C   0  0  0  0  0  0  0  0  0  0  0  0
    1.1378   -0.1688   -1.2045 O   0  0  0  0  0  0  0  0  0  0  0  0
   -1.2703   -1.2172   -0.0495 O   0  0  0  0  0  0  0  0  0  0  0  0
   -0.5735    1.3703   -0.3711 H   0  0  0  0  0  0  0  0  0  0  0  0
   -1.5240    1.2446    1.2367 H   0  0  0  0  0  0  0  0  0  0  0  0
   -0.3842   -0.8385    1.7858 H   0  0  0  0  0  0  0  0  0  0  0  0
    1.4627   -1.7283    0.2327 H   0  0  0  0  0  0  0  0  0  0  0  0
    3.0415    0.1711   -0.2232 H   0  0  0  0  0  0  0  0  0  0  0  0
    1.7347    1.4411    0.0497 H   0  0  0  0  0  0  0  0  0  0  0  0
  1  2  2  0
  2  3  1  0
  3  4  1  0
  4  5  1  0
  5  6  1  0
  6  7  1  0
  4  8  1  0
  8  2  1  0
  7  5  1  0
  3  9  1  0
  3 10  1  0
  4 11  1  0
  5 12  1  0
  6 13  1  0
  6 14  1  0
M  END
