
     RDKit          3D

 13 13  0  0  0  0  0  0  0  0999 V2000
    0.7548    1.9979   -0.5913 O   0  0  0  0  0  0  0  0  0  0  0  0
    0.7681    0.8393   -0.2702 C   0  0  0  0  0  0  0  0  0  0  0  0
    1.7614    0.0523    0.5026 C   0  0  0  0  0  0  0  0  0  0  0  0
    0.6810   -0.7451    0.9457 O   0  0  0  0  0  0  0  0  0  0  0  0
    0.0907   -0.4457   -0.3040 C   0  0  0  0  0  0  0  0  0  0  0  0
   -1.4006   -0.4602   -0.1997 C   0  0  0  0  0  0  0  0  0  0  0  0
   -1.9125    0.4439    0.6953 O   0  0  0  0  0  0  0  0  0  0  0  0
    2.2675    0.5697    1.3216 H   0  0  0  0  0  0  0  0  0  0  0  0
    2.4419   -0.5575   -0.1626 H   0  0  0  0  0  0  0  0  0  0  0  0
    0.4461   -1.0902   -1.1232 H   0  0  0  0  0  0  0  0  0  0  0  0
   -1.6944   -1.4832    0.1642 H   0  0  0  0  0  0  0  0  0  0  0  0
   -1.8529   -0.3368   -1.2083 H   0  0  0  0  0  0  0  0  0  0  0  0
   -2.3512    1.2157    0.2300 H   0  0  0  0  0  0  0  0  0  0  0  0
  1  2  2  0
  2  3  1  0
  3  4  1  0
  4  5  1  0
  5  6  1  0
  6  7  1  0
  5  2  1  0
  3  8  1  0
  3  9  1  0
  5 10  1  0
  6 11  1  0
  6 12  1  0
  7 13  1  0
M  END
