
     RDKit          3D

 13 14  0  0  0  0  0  0  0  0999 V2000
   -1.2783    2.0474    1.3239 O   0  0  0  0  0  0  0  0  0  0  0  0
   -0.8347    0.9598    0.8735 C   0  0  0  0  0  0  0  0  0  0  0  0
   -1.1535    0.4030   -0.4511 C   0  0  0  0  0  0  0  0  0  0  0  0
   -0.1489   -0.6960   -0.6482 C   0  0  0  0  0  0  0  0  0  0  0  0
    1.0209   -0.3382   -1.3352 O   0  0  0  0  0  0  0  0  0  0  0  0
    1.7366   -0.0358   -0.1830 C   0  0  0  0  0  0  0  0  0  0  0  0
    2.8229    0.5925   -0.0721 O   0  0  0  0  0  0  0  0  0  0  0  0
    0.7137   -0.7205    0.6111 C   0  0  0  0  0  0  0  0  0  0  0  0
    0.0263    0.1087    1.5509 O   0  0  0  0  0  0  0  0  0  0  0  0
   -2.1674   -0.0870   -0.4199 H   0  0  0  0  0  0  0  0  0  0  0  0
   -1.1743    1.1457   -1.2597 H   0  0  0  0  0  0  0  0  0  0  0  0
   -0.5348   -1.6675   -0.9702 H   0  0  0  0  0  0  0  0  0  0  0  0
    0.9716   -1.7122    0.9800 H   0  0  0  0  0  0  0  0  0  0  0  0
  1  2  2  0
  2  3  1  0
  3  4  1  0
  4  5  1  0
  5  6  1  0
  6  7  2  0
  6  8  1  0
  8  9  1  0
  9  2  1  0
  8  4  1  0
  3 10  1  0
  3 11  1  0
  4 12  1  0
  8 13  1  0
M  END
