
     RDKit          3D

 17 18  0  0  0  0  0  0  0  0999 V2000
   -1.3345    2.4891   -0.3910 O   0  0  0  0  0  0  0  0  0  0  0  0
   -0.6874    1.4276   -0.3813 C   0  0  0  0  0  0  0  0  0  0  0  0
    0.5291    1.2680   -1.0638 O   0  0  0  0  0  0  0  0  0  0  0  0
    1.5327    0.4196   -0.5751 C   0  0  0  0  0  0  0  0  0  0  0  0
    0.9603   -0.7860    0.1547 C   0  0  0  0  0  0  0  0  0  0  0  0
    0.0492   -0.2038    1.2464 C   0  0  0  0  0  0  0  0  0  0  0  0
   -1.1282    0.2071    0.3538 C   0  0  0  0  0  0  0  0  0  0  0  0
   -1.1244   -0.9164   -0.6537 C   0  0  0  0  0  0  0  0  0  0  0  0
    0.1015   -1.5224   -0.6179 O   0  0  0  0  0  0  0  0  0  0  0  0
    2.0842    1.0053    0.2176 H   0  0  0  0  0  0  0  0  0  0  0  0
    2.2351    0.1559   -1.3642 H   0  0  0  0  0  0  0  0  0  0  0  0
    1.7683   -1.3537    0.6119 H   0  0  0  0  0  0  0  0  0  0  0  0
   -0.2215   -1.0144    1.9214 H   0  0  0  0  0  0  0  0  0  0  0  0
    0.5080    0.6702    1.7286 H   0  0  0  0  0  0  0  0  0  0  0  0
   -2.0526    0.3274    0.8994 H   0  0  0  0  0  0  0  0  0  0  0  0
   -1.9383   -1.6497   -0.3988 H   0  0  0  0  0  0  0  0  0  0  0  0
   -1.2814   -0.5239   -1.6882 H   0  0  0  0  0  0  0  0  0  0  0  0
  1  2  2  0
  2  3  1  0
  3  4  1  0
  4  5  1  0
  5  6  1  0
  6  7  1  0
  7  8  1  0
  8  9  1  0
  7  2  1  0
  9  5  1  0
  4 10  1  0
  4 11  1  0
  5 12  1  0
  6 13  1  0
  6 14  1  0
  7 15  1  0
  8 16  1  0
  8 17  1  0
M  END
