
     RDKit          3D

 17 18  0  0  0  0  0  0  0  0999 V2000
   -0.0947    2.7055    0.3186 O   0  0  0  0  0  0  0  0  0  0  0  0
    0.1310    1.4694    0.3748 C   0  0  0  0  0  0  0  0  0  0  0  0
    1.5199    1.0499    0.0657 C   0  0  0  0  0  0  0  0  0  0  0  0
    2.0151   -0.1720   -0.1871 C   0  0  0  0  0  0  0  0  0  0  0  0
    1.1534   -1.3793   -0.1911 C   0  0  0  0  0  0  0  0  0  0  0  0
   -0.1604   -1.4691   -0.3625 C   0  0  0  0  0  0  0  0  0  0  0  0
   -1.0411   -0.3478   -0.5891 C   0  0  0  0  0  0  0  0  0  0  0  0
   -2.1434    0.1850    0.1238 C   0  0  0  0  0  0  0  0  0  0  0  0
   -0.9041    0.5129    0.7207 C   0  0  0  0  0  0  0  0  0  0  0  0
    2.2747    1.8335    0.0299 H   0  0  0  0  0  0  0  0  0  0  0  0
    3.0646   -0.2789   -0.3910 H   0  0  0  0  0  0  0  0  0  0  0  0
    1.7357   -2.2831   -0.0275 H   0  0  0  0  0  0  0  0  0  0  0  0
   -0.5616   -2.4658   -0.3232 H   0  0  0  0  0  0  0  0  0  0  0  0
   -0.7707    0.1829   -1.5550 H   0  0  0  0  0  0  0  0  0  0  0  0
   -2.8485   -0.4778    0.6951 H   0  0  0  0  0  0  0  0  0  0  0  0
   -2.7441    1.0038   -0.3549 H   0  0  0  0  0  0  0  0  0  0  0  0
   -0.6260   -0.0690    1.6530 H   0  0  0  0  0  0  0  0  0  0  0  0
  1  2  2  0
  2  3  1  0
  3  4  2  0
  4  5  1  0
  5  6  2  0
  6  7  1  0
  7  8  1  0
  8  9  1  0
  9  2  1  0
  9  7  1  0
  3 10  1  0
  4 11  1  0
  5 12  1  0
  6 13  1  0
  7 14  1  0
  8 15  1  0
  8 16  1  0
  9 17  1  0
M  END
