
     RDKit          3D

 16 17  0  0  0  0  0  0  0  0999 V2000
   -2.6464    1.7828    0.1367 O   0  0  0  0  0  0  0  0  0  0  0  0
   -1.7913    0.8980   -0.0389 C   0  0  0  0  0  0  0  0  0  0  0  0
   -0.4416    1.0785   -0.6166 C   0  0  0  0  0  0  0  0  0  0  0  0
    0.2633   -0.1412   -0.0897 C   0  0  0  0  0  0  0  0  0  0  0  0
    1.0870   -0.0940    1.1317 C   0  0  0  0  0  0  0  0  0  0  0  0
    1.6834   -0.3784   -0.2128 C   0  0  0  0  0  0  0  0  0  0  0  0
   -0.8001   -1.1741   -0.1572 C   0  0  0  0  0  0  0  0  0  0  0  0
   -1.9551   -0.4364    0.2811 O   0  0  0  0  0  0  0  0  0  0  0  0
    0.0338    2.0217   -0.3706 H   0  0  0  0  0  0  0  0  0  0  0  0
   -0.5606    0.9356   -1.7291 H   0  0  0  0  0  0  0  0  0  0  0  0
    1.2943    0.8484    1.6603 H   0  0  0  0  0  0  0  0  0  0  0  0
    1.0099   -0.9691    1.8318 H   0  0  0  0  0  0  0  0  0  0  0  0
    2.1391   -1.3614   -0.4279 H   0  0  0  0  0  0  0  0  0  0  0  0
    2.3161    0.4618   -0.6193 H   0  0  0  0  0  0  0  0  0  0  0  0
   -1.0080   -1.4129   -1.2263 H   0  0  0  0  0  0  0  0  0  0  0  0
   -0.6235   -2.0592    0.4471 H   0  0  0  0  0  0  0  0  0  0  0  0
  1  2  2  0
  2  3  1  0
  3  4  1  0
  4  5  1  0
  5  6  1  0
  4  7  1  0
  7  8  1  0
  8  2  1  0
  6  4  1  0
  3  9  1  0
  3 10  1  0
  5 11  1  0
  5 12  1  0
  6 13  1  0
  6 14  1  0
  7 15  1  0
  7 16  1  0
M  END
