
     RDKit          3D

 17 18  0  0  0  0  0  0  0  0999 V2000
    3.0656    0.0315   -0.2422 O   0  0  0  0  0  0  0  0  0  0  0  0
    1.7981   -0.0363   -0.2104 C   0  0  0  0  0  0  0  0  0  0  0  0
    1.0854    1.2631   -0.2056 C   0  0  0  0  0  0  0  0  0  0  0  0
   -0.1489    1.5317    0.2140 C   0  0  0  0  0  0  0  0  0  0  0  0
   -1.0609    0.5519    0.7693 C   0  0  0  0  0  0  0  0  0  0  0  0
   -2.1740   -0.1315    0.2195 C   0  0  0  0  0  0  0  0  0  0  0  0
   -0.9248   -0.6696   -0.2099 C   0  0  0  0  0  0  0  0  0  0  0  0
   -0.0384   -1.4876    0.3944 O   0  0  0  0  0  0  0  0  0  0  0  0
    1.2262   -1.4007   -0.1833 C   0  0  0  0  0  0  0  0  0  0  0  0
    1.6955    2.0688   -0.6054 H   0  0  0  0  0  0  0  0  0  0  0  0
   -0.4528    2.5656    0.1158 H   0  0  0  0  0  0  0  0  0  0  0  0
   -0.8047    0.3343    1.8516 H   0  0  0  0  0  0  0  0  0  0  0  0
   -2.8422    0.3516   -0.5425 H   0  0  0  0  0  0  0  0  0  0  0  0
   -2.8042   -0.7517    0.9097 H   0  0  0  0  0  0  0  0  0  0  0  0
   -0.6215   -0.4182   -1.2707 H   0  0  0  0  0  0  0  0  0  0  0  0
    1.0602   -1.6837   -1.2655 H   0  0  0  0  0  0  0  0  0  0  0  0
    1.9416   -2.1193    0.2613 H   0  0  0  0  0  0  0  0  0  0  0  0
  1  2  2  0
  2  3  1  0
  3  4  2  0
  4  5  1  0
  5  6  1  0
  6  7  1  0
  7  8  1  0
  8  9  1  0
  9  2  1  0
  7  5  1  0
  3 10  1  0
  4 11  1  0
  5 12  1  0
  6 13  1  0
  6 14  1  0
  7 15  1  0
  9 16  1  0
  9 17  1  0
M  END
