
     RDKit          3D

 15 15  0  0  0  0  0  0  0  0999 V2000
    0.3878    2.4159    0.3178 O   0  0  0  0  0  0  0  0  0  0  0  0
    0.2077    1.2555    0.0366 C   0  0  0  0  0  0  0  0  0  0  0  0
    1.3291    0.3189    0.0820 C   0  0  0  0  0  0  0  0  0  0  0  0
    0.9573   -1.1192    0.1432 C   0  0  0  0  0  0  0  0  0  0  0  0
   -0.2591   -1.4459   -0.3659 O   0  0  0  0  0  0  0  0  0  0  0  0
   -1.3107   -0.6623   -0.0089 C   0  0  0  0  0  0  0  0  0  0  0  0
   -1.1274    0.8024   -0.3454 C   0  0  0  0  0  0  0  0  0  0  0  0
    2.0336    0.5382   -0.7709 H   0  0  0  0  0  0  0  0  0  0  0  0
    1.9372    0.5794    0.9985 H   0  0  0  0  0  0  0  0  0  0  0  0
    1.1140   -1.5107    1.1917 H   0  0  0  0  0  0  0  0  0  0  0  0
    1.7317   -1.6832   -0.4601 H   0  0  0  0  0  0  0  0  0  0  0  0
   -2.1924   -0.9886   -0.6364 H   0  0  0  0  0  0  0  0  0  0  0  0
   -1.6599   -0.7924    1.0420 H   0  0  0  0  0  0  0  0  0  0  0  0
   -1.8796    1.3822    0.2252 H   0  0  0  0  0  0  0  0  0  0  0  0
   -1.2693    0.9099   -1.4495 H   0  0  0  0  0  0  0  0  0  0  0  0
  1  2  2  0
  2  3  1  0
  3  4  1  0
  4  5  1  0
  5  6  1  0
  6  7  1  0
  7  2  1  0
  3  8  1  0
  3  9  1  0
  4 10  1  0
  4 11  1  0
  6 12  1  0
  6 13  1  0
  7 14  1  0
  7 15  1  0
M  END
