
     RDKit          3D

 17 18  0  0  0  0  0  0  0  0999 V2000
   -3.1451    0.6999    0.3902 O   0  0  0  0  0  0  0  0  0  0  0  0
   -1.9287    0.4400    0.4039 C   0  0  0  0  0  0  0  0  0  0  0  0
   -1.4653   -0.8731   -0.1076 C   0  0  0  0  0  0  0  0  0  0  0  0
   -0.0499   -1.0672    0.4526 C   0  0  0  0  0  0  0  0  0  0  0  0
    0.7665    0.0818   -0.0387 C   0  0  0  0  0  0  0  0  0  0  0  0
    0.3412    1.3672    0.5953 C   0  0  0  0  0  0  0  0  0  0  0  0
   -1.0435    1.3885    0.8978 O   0  0  0  0  0  0  0  0  0  0  0  0
    2.0421   -0.0404   -0.7133 C   0  0  0  0  0  0  0  0  0  0  0  0
    0.8799    0.0749   -1.4772 O   0  0  0  0  0  0  0  0  0  0  0  0
   -1.3517   -0.7668   -1.2183 H   0  0  0  0  0  0  0  0  0  0  0  0
   -2.1039   -1.7093    0.1599 H   0  0  0  0  0  0  0  0  0  0  0  0
    0.3586   -2.0300    0.1316 H   0  0  0  0  0  0  0  0  0  0  0  0
   -0.1205   -1.0551    1.5580 H   0  0  0  0  0  0  0  0  0  0  0  0
    0.9194    1.4623    1.5576 H   0  0  0  0  0  0  0  0  0  0  0  0
    0.6595    2.1940   -0.0501 H   0  0  0  0  0  0  0  0  0  0  0  0
    2.6833    0.8670   -0.7511 H   0  0  0  0  0  0  0  0  0  0  0  0
    2.5582   -1.0335   -0.6674 H   0  0  0  0  0  0  0  0  0  0  0  0
  1  2  2  0
  2  3  1  0
  3  4  1  0
  4  5  1  0
  5  6  1  0
  6  7  1  0
  5  8  1  0
  8  9  1  0
  7  2  1  0
  9  5  1  0
  3 10  1  0
  3 11  1  0
  4 12  1  0
  4 13  1  0
  6 14  1  0
  6 15  1  0
  8 16  1  0
  8 17  1  0
M  END
