
     RDKit          3D

 15 16  0  0  0  0  0  0  0  0999 V2000
   -2.2359    1.2733   -1.2734 O   0  0  0  0  0  0  0  0  0  0  0  0
   -1.3145    0.7451   -0.6213 C   0  0  0  0  0  0  0  0  0  0  0  0
   -0.1927    1.4457    0.0398 C   0  0  0  0  0  0  0  0  0  0  0  0
    0.8149    0.6434    0.2484 C   0  0  0  0  0  0  0  0  0  0  0  0
    2.0211   -0.1366    0.5471 C   0  0  0  0  0  0  0  0  0  0  0  0
    1.1308   -1.2420    0.7321 O   0  0  0  0  0  0  0  0  0  0  0  0
    0.4487   -0.7150   -0.3445 C   0  0  0  0  0  0  0  0  0  0  0  0
   -1.0582   -0.7073   -0.3110 C   0  0  0  0  0  0  0  0  0  0  0  0
   -1.5907   -0.9508    0.9304 O   0  0  0  0  0  0  0  0  0  0  0  0
   -0.2368    2.5136    0.3086 H   0  0  0  0  0  0  0  0  0  0  0  0
    2.6229   -0.2897   -0.3733 H   0  0  0  0  0  0  0  0  0  0  0  0
    2.5809    0.1295    1.4507 H   0  0  0  0  0  0  0  0  0  0  0  0
    0.8744   -0.8754   -1.3361 H   0  0  0  0  0  0  0  0  0  0  0  0
   -1.4341   -1.3683   -1.1072 H   0  0  0  0  0  0  0  0  0  0  0  0
   -2.4309   -0.4656    1.1096 H   0  0  0  0  0  0  0  0  0  0  0  0
  1  2  2  0
  2  3  1  0
  3  4  2  0
  4  5  1  0
  5  6  1  0
  6  7  1  0
  7  8  1  0
  8  9  1  0
  8  2  1  0
  7  4  1  0
  3 10  1  0
  5 11  1  0
  5 12  1  0
  7 13  1  0
  8 14  1  0
  9 15  1  0
M  END
