
     RDKit          3D

 17 18  0  0  0  0  0  0  0  0999 V2000
   -0.5986    0.7076   -2.2822 O   0  0  0  0  0  0  0  0  0  0  0  0
   -0.4631    0.2108   -1.2120 C   0  0  0  0  0  0  0  0  0  0  0  0
    0.1885   -0.9725   -0.6237 C   0  0  0  0  0  0  0  0  0  0  0  0
   -1.0521   -1.0089    0.2903 C   0  0  0  0  0  0  0  0  0  0  0  0
   -0.8854    0.5115    0.1710 C   0  0  0  0  0  0  0  0  0  0  0  0
   -1.9491    1.2680    0.4127 O   0  0  0  0  0  0  0  0  0  0  0  0
    0.3803    0.6862    0.9720 C   0  0  0  0  0  0  0  0  0  0  0  0
    1.2590   -0.3357    0.2232 C   0  0  0  0  0  0  0  0  0  0  0  0
    2.1700    0.4001   -0.5012 O   0  0  0  0  0  0  0  0  0  0  0  0
    0.3954   -1.8292   -1.2019 H   0  0  0  0  0  0  0  0  0  0  0  0
   -1.8923   -1.4166   -0.2730 H   0  0  0  0  0  0  0  0  0  0  0  0
   -0.8574   -1.4058    1.2876 H   0  0  0  0  0  0  0  0  0  0  0  0
   -1.7476    2.2086    0.3112 H   0  0  0  0  0  0  0  0  0  0  0  0
    0.8006    1.6873    0.9413 H   0  0  0  0  0  0  0  0  0  0  0  0
    0.2118    0.2804    1.9904 H   0  0  0  0  0  0  0  0  0  0  0  0
    1.6949   -1.0695    0.8998 H   0  0  0  0  0  0  0  0  0  0  0  0
    2.3451    0.0779   -1.4056 H   0  0  0  0  0  0  0  0  0  0  0  0
  1  2  2  0
  2  3  1  0
  3  4  1  0
  4  5  1  0
  5  6  1  0
  5  7  1  0
  7  8  1  0
  8  9  1  0
  5  2  1  0
  8  3  1  0
  3 10  1  0
  4 11  1  0
  4 12  1  0
  6 13  1  0
  7 14  1  0
  7 15  1  0
  8 16  1  0
  9 17  1  0
M  END
