
     RDKit          2D

 15 17  0  0  0  0  0  0  0  0999 V2000
   -3.7337    0.0000    0.0000 O   0  0  0  0  0  0  0  0  0  0  0  0
   -2.3972   -0.6810    0.0000 C   0  0  0  0  0  0  0  0  0  0  0  0
   -2.1625   -2.1625    0.0000 C   0  0  0  0  0  0  0  0  0  0  0  0
   -0.6810   -2.3972    0.0000 C   0  0  0  0  0  0  0  0  0  0  0  0
   -0.0000   -1.0607    0.0000 C   0  0  0  0  0  0  0  0  0  0  0  0
    0.3607    0.0000    0.0000 C   0  0  0  0  0  0  0  0  0  0  0  0
    0.0000    1.0607    0.0000 C   0  0  0  0  0  0  0  0  0  0  0  0
    0.3393   -0.0000    0.0000 O   0  0  0  0  0  0  0  0  0  0  0  0
   -1.0607    0.0000    0.0000 C   0  0  0  0  0  0  0  0  0  0  0  0
   -3.2232   -3.2232    0.0000 H   0  0  0  0  0  0  0  0  0  0  0  0
   -0.0000   -3.7337    0.0000 H   0  0  0  0  0  0  0  0  0  0  0  0
    2.1213    1.0607    0.0000 H   0  0  0  0  0  0  0  0  0  0  0  0
    2.1213   -1.0607    0.0000 H   0  0  0  0  0  0  0  0  0  0  0  0
    0.0000    2.5607    0.0000 H   0  0  0  0  0  0  0  0  0  0  0  0
   -1.9423    1.2135    0.0000 H   0  0  0  0  0  0  0  0  0  0  0  0
  1  2  2  0
  2  3  1  0
  3  4  2  0
  4  5  1  0
  5  6  1  0
  6  7  1  0
  7  8  1  0
  7  9  1  0
  9  2  1  0
  8  5  1  0
  9  5  1  0
  3 10  1  0
  4 11  1  0
  6 12  1  0
  6 13  1  0
  7 14  1  0
  9 15  1  0
M  END
