
     RDKit          2D

 17 19  0  0  0  0  0  0  0  0999 V2000
   -4.3467    2.2253    0.0000 O   0  0  0  0  0  0  0  0  0  0  0  0
   -2.8978    1.8371    0.0000 C   0  0  0  0  0  0  0  0  0  0  0  0
   -1.8371    2.8978    0.0000 C   0  0  0  0  0  0  0  0  0  0  0  0
   -0.3882    2.5095    0.0000 C   0  0  0  0  0  0  0  0  0  0  0  0
   -0.0000   -1.0607    0.0000 C   0  0  0  0  0  0  0  0  0  0  0  0
    1.0607    0.0000    0.0000 O   0  0  0  0  0  0  0  0  0  0  0  0
    0.0000    1.0607    0.0000 C   0  0  0  0  0  0  0  0  0  0  0  0
   -1.0607    0.0000    0.0000 C   0  0  0  0  0  0  0  0  0  0  0  0
   -2.5095    0.3882    0.0000 C   0  0  0  0  0  0  0  0  0  0  0  0
   -3.0658    3.7581    0.0000 H   0  0  0  0  0  0  0  0  0  0  0  0
   -1.2032    4.2572    0.0000 H   0  0  0  0  0  0  0  0  0  0  0  0
    0.6724    3.5702    0.0000 H   0  0  0  0  0  0  0  0  0  0  0  0
   -0.0000   -2.5607    0.0000 H   0  0  0  0  0  0  0  0  0  0  0  0
    1.2990    1.8107    0.0000 H   0  0  0  0  0  0  0  0  0  0  0  0
   -1.6467   -1.3808    0.0000 H   0  0  0  0  0  0  0  0  0  0  0  0
   -2.8215   -1.0790    0.0000 H   0  0  0  0  0  0  0  0  0  0  0  0
   -4.0038    0.2575    0.0000 H   0  0  0  0  0  0  0  0  0  0  0  0
  1  2  2  0
  2  3  1  0
  3  4  1  0
  4  5  1  0
  5  6  1  0
  6  7  1  0
  7  8  1  0
  8  9  1  0
  9  2  1  0
  7  4  1  0
  8  5  1  0
  3 10  1  0
  3 11  1  0
  4 12  1  0
  5 13  1  0
  7 14  1  0
  8 15  1  0
  9 16  1  0
  9 17  1  0
M  END
