
     RDKit          3D

 15 17  0  0  0  0  0  0  0  0999 V2000
    2.8779   -0.6009   -0.2653 O   0  0  0  0  0  0  0  0  0  0  0  0
    1.6228   -0.5674   -0.3084 C   0  0  0  0  0  0  0  0  0  0  0  0
    0.9087   -0.9586   -1.4344 O   0  0  0  0  0  0  0  0  0  0  0  0
   -0.4290   -0.4912   -1.2574 C   0  0  0  0  0  0  0  0  0  0  0  0
   -0.5916    0.8192   -0.6023 C   0  0  0  0  0  0  0  0  0  0  0  0
    0.2735    1.3074    0.5064 C   0  0  0  0  0  0  0  0  0  0  0  0
    0.6800   -0.1316    0.7612 C   0  0  0  0  0  0  0  0  0  0  0  0
   -0.6348   -0.5237    0.1685 C   0  0  0  0  0  0  0  0  0  0  0  0
   -1.7376   -0.8123    0.8642 O   0  0  0  0  0  0  0  0  0  0  0  0
   -1.2073   -0.8026   -1.9467 H   0  0  0  0  0  0  0  0  0  0  0  0
   -1.5400    1.3472   -0.7422 H   0  0  0  0  0  0  0  0  0  0  0  0
   -0.3583    1.6473    1.3645 H   0  0  0  0  0  0  0  0  0  0  0  0
    1.1027    1.9877    0.2370 H   0  0  0  0  0  0  0  0  0  0  0  0
    0.9094   -0.4143    1.7735 H   0  0  0  0  0  0  0  0  0  0  0  0
   -1.8763   -1.8062    0.8813 H   0  0  0  0  0  0  0  0  0  0  0  0
  1  2  2  0
  2  3  1  0
  3  4  1  0
  4  5  1  0
  5  6  1  0
  6  7  1  0
  7  8  1  0
  8  9  1  0
  7  2  1  0
  8  4  1  0
  8  5  1  0
  4 10  1  0
  5 11  1  0
  6 12  1  0
  6 13  1  0
  7 14  1  0
  9 15  1  0
M  END
