
     RDKit          3D

 15 16  0  0  0  0  0  0  0  0999 V2000
    3.7158   -0.7213    0.4800 O   0  0  0  0  0  0  0  0  0  0  0  0
    2.4988   -0.5196    0.1498 C   0  0  0  0  0  0  0  0  0  0  0  0
    1.7369   -1.2350   -0.8086 O   0  0  0  0  0  0  0  0  0  0  0  0
    0.4243   -0.9885   -0.4095 C   0  0  0  0  0  0  0  0  0  0  0  0
   -0.5485   -0.0186   -0.6828 C   0  0  0  0  0  0  0  0  0  0  0  0
   -1.7022    0.2307    0.2940 C   0  0  0  0  0  0  0  0  0  0  0  0
   -2.4729   -0.8993    0.4857 O   0  0  0  0  0  0  0  0  0  0  0  0
    0.6798    0.5781   -0.3796 C   0  0  0  0  0  0  0  0  0  0  0  0
    1.6119    0.4521    0.6457 O   0  0  0  0  0  0  0  0  0  0  0  0
    0.2993   -1.4714    0.6119 H   0  0  0  0  0  0  0  0  0  0  0  0
   -0.9594    0.0295   -1.7337 H   0  0  0  0  0  0  0  0  0  0  0  0
   -1.2855    0.5381    1.2831 H   0  0  0  0  0  0  0  0  0  0  0  0
   -2.3485    1.0479   -0.0407 H   0  0  0  0  0  0  0  0  0  0  0  0
   -2.8813   -0.8252    1.3887 H   0  0  0  0  0  0  0  0  0  0  0  0
    1.2314    0.9903   -1.2841 H   0  0  0  0  0  0  0  0  0  0  0  0
  1  2  2  0
  2  3  1  0
  3  4  1  0
  4  5  1  0
  5  6  1  0
  6  7  1  0
  5  8  1  0
  8  9  1  0
  9  2  1  0
  8  4  1  0
  4 10  1  0
  5 11  1  0
  6 12  1  0
  6 13  1  0
  7 14  1  0
  8 15  1  0
M  END
