
     RDKit          2D

 15 17  0  0  0  0  0  0  0  0999 V2000
   -2.9125    1.1578    0.0000 O   0  0  0  0  0  0  0  0  0  0  0  0
   -2.1213    1.0607    0.0000 C   0  0  0  0  0  0  0  0  0  0  0  0
   -1.0607    2.1213    0.0000 C   0  0  0  0  0  0  0  0  0  0  0  0
   -0.8041    1.2256    0.0000 C   0  0  0  0  0  0  0  0  0  0  0  0
   -0.3102   -0.1519    0.0000 C   0  0  0  0  0  0  0  0  0  0  0  0
   -0.0000   -1.0607    0.0000 C   0  0  0  0  0  0  0  0  0  0  0  0
    1.0607    0.0000    0.0000 O   0  0  0  0  0  0  0  0  0  0  0  0
    0.0000    1.0607    0.0000 C   0  0  0  0  0  0  0  0  0  0  0  0
   -1.0607    0.0000    0.0000 C   0  0  0  0  0  0  0  0  0  0  0  0
   -1.0607    3.6213    0.0000 H   0  0  0  0  0  0  0  0  0  0  0  0
   -2.2045    0.9901    0.0000 H   0  0  0  0  0  0  0  0  0  0  0  0
   -2.3205   -1.9952    0.0000 H   0  0  0  0  0  0  0  0  0  0  0  0
   -0.0000   -2.5607    0.0000 H   0  0  0  0  0  0  0  0  0  0  0  0
    1.0607    2.1213    0.0000 H   0  0  0  0  0  0  0  0  0  0  0  0
   -2.4310   -0.6100    0.0000 H   0  0  0  0  0  0  0  0  0  0  0  0
  1  2  2  0
  2  3  1  0
  3  4  1  0
  4  5  2  0
  5  6  1  0
  6  7  1  0
  7  8  1  0
  8  9  1  0
  9  2  1  0
  8  3  1  0
  9  6  1  0
  3 10  1  0
  4 11  1  0
  5 12  1  0
  6 13  1  0
  8 14  1  0
  9 15  1  0
M  END
