
     RDKit          3D

 19 20  0  0  0  0  0  0  0  0999 V2000
    1.2544    1.7932   -1.7127 O   0  0  0  0  0  0  0  0  0  0  0  0
    0.7907    1.1710   -0.7720 C   0  0  0  0  0  0  0  0  0  0  0  0
   -0.5651    1.4024   -0.2732 C   0  0  0  0  0  0  0  0  0  0  0  0
   -1.1806    0.2875    0.4690 C   0  0  0  0  0  0  0  0  0  0  0  0
   -1.7725   -0.8577   -0.2828 C   0  0  0  0  0  0  0  0  0  0  0  0
   -0.5137   -0.9828    0.5326 C   0  0  0  0  0  0  0  0  0  0  0  0
    0.8072   -1.1409   -0.1085 C   0  0  0  0  0  0  0  0  0  0  0  0
    1.6361    0.1467   -0.1166 C   0  0  0  0  0  0  0  0  0  0  0  0
    2.0286    0.5054    1.1625 O   0  0  0  0  0  0  0  0  0  0  0  0
   -0.5259    2.3460    0.3474 H   0  0  0  0  0  0  0  0  0  0  0  0
   -1.2391    1.6733   -1.1334 H   0  0  0  0  0  0  0  0  0  0  0  0
   -1.7648    0.6065    1.3827 H   0  0  0  0  0  0  0  0  0  0  0  0
   -2.7203   -1.2892    0.0884 H   0  0  0  0  0  0  0  0  0  0  0  0
   -1.6631   -0.9278   -1.3862 H   0  0  0  0  0  0  0  0  0  0  0  0
   -0.6617   -1.6237    1.4496 H   0  0  0  0  0  0  0  0  0  0  0  0
    1.4600   -1.9014    0.3927 H   0  0  0  0  0  0  0  0  0  0  0  0
    0.7487   -1.4518   -1.1880 H   0  0  0  0  0  0  0  0  0  0  0  0
    2.5526   -0.0975   -0.6941 H   0  0  0  0  0  0  0  0  0  0  0  0
    1.3285    0.3410    1.8427 H   0  0  0  0  0  0  0  0  0  0  0  0
  1  2  2  0
  2  3  1  0
  3  4  1  0
  4  5  1  0
  5  6  1  0
  6  7  1  0
  7  8  1  0
  8  9  1  0
  8  2  1  0
  6  4  1  0
  3 10  1  0
  3 11  1  0
  4 12  1  0
  5 13  1  0
  5 14  1  0
  6 15  1  0
  7 16  1  0
  7 17  1  0
  8 18  1  0
  9 19  1  0
M  END
