
     RDKit          3D

 17 17  0  0  0  0  0  0  0  0999 V2000
   -1.0413    2.5270   -0.5533 O   0  0  0  0  0  0  0  0  0  0  0  0
   -0.5910    1.4201   -0.1636 C   0  0  0  0  0  0  0  0  0  0  0  0
   -1.5972    0.4963    0.4283 C   0  0  0  0  0  0  0  0  0  0  0  0
   -1.2821   -0.8947   -0.1407 C   0  0  0  0  0  0  0  0  0  0  0  0
   -0.2438   -1.3983    0.6109 O   0  0  0  0  0  0  0  0  0  0  0  0
    0.9930   -1.2646    0.0282 C   0  0  0  0  0  0  0  0  0  0  0  0
    1.6231    0.0900    0.2609 C   0  0  0  0  0  0  0  0  0  0  0  0
    0.8375    1.1845   -0.3376 C   0  0  0  0  0  0  0  0  0  0  0  0
    1.4535    2.0067   -1.0774 O   0  0  0  0  0  0  0  0  0  0  0  0
   -1.4026    0.4653    1.5340 H   0  0  0  0  0  0  0  0  0  0  0  0
   -2.6238    0.7864    0.2174 H   0  0  0  0  0  0  0  0  0  0  0  0
   -0.9486   -0.7900   -1.1959 H   0  0  0  0  0  0  0  0  0  0  0  0
   -2.2030   -1.4801   -0.0993 H   0  0  0  0  0  0  0  0  0  0  0  0
    1.6729   -2.0107    0.4902 H   0  0  0  0  0  0  0  0  0  0  0  0
    0.9782   -1.4491   -1.0731 H   0  0  0  0  0  0  0  0  0  0  0  0
    2.6133    0.0638   -0.2661 H   0  0  0  0  0  0  0  0  0  0  0  0
    1.7619    0.2473    1.3372 H   0  0  0  0  0  0  0  0  0  0  0  0
  1  2  2  0
  2  3  1  0
  3  4  1  0
  4  5  1  0
  5  6  1  0
  6  7  1  0
  7  8  1  0
  8  9  2  0
  8  2  1  0
  3 10  1  0
  3 11  1  0
  4 12  1  0
  4 13  1  0
  6 14  1  0
  6 15  1  0
  7 16  1  0
  7 17  1  0
M  END
