
     RDKit          3D

 19 20  0  0  0  0  0  0  0  0999 V2000
    3.0358   -0.4043    0.2136 O   0  0  0  0  0  0  0  0  0  0  0  0
    1.8483   -0.2362    0.0518 C   0  0  0  0  0  0  0  0  0  0  0  0
    1.1653    1.0450   -0.1298 C   0  0  0  0  0  0  0  0  0  0  0  0
   -0.2003    0.6834   -0.6345 C   0  0  0  0  0  0  0  0  0  0  0  0
   -1.3352    1.1549    0.2699 C   0  0  0  0  0  0  0  0  0  0  0  0
   -1.0760   -0.1080    1.1033 C   0  0  0  0  0  0  0  0  0  0  0  0
   -0.4892   -0.7195   -0.1301 C   0  0  0  0  0  0  0  0  0  0  0  0
   -1.4011   -1.3850   -0.9223 O   0  0  0  0  0  0  0  0  0  0  0  0
    0.8608   -1.3437    0.0104 C   0  0  0  0  0  0  0  0  0  0  0  0
    1.6785    1.6468   -0.9213 H   0  0  0  0  0  0  0  0  0  0  0  0
    1.1367    1.6818    0.7710 H   0  0  0  0  0  0  0  0  0  0  0  0
   -0.3815    0.7806   -1.7069 H   0  0  0  0  0  0  0  0  0  0  0  0
   -2.2790    1.1283   -0.3005 H   0  0  0  0  0  0  0  0  0  0  0  0
   -1.1056    2.0734    0.8194 H   0  0  0  0  0  0  0  0  0  0  0  0
   -2.0662   -0.5118    1.4206 H   0  0  0  0  0  0  0  0  0  0  0  0
   -0.4067    0.0854    1.9405 H   0  0  0  0  0  0  0  0  0  0  0  0
   -1.0287   -1.6332   -1.7899 H   0  0  0  0  0  0  0  0  0  0  0  0
    1.0725   -1.9157   -0.9282 H   0  0  0  0  0  0  0  0  0  0  0  0
    0.9715   -2.0222    0.8630 H   0  0  0  0  0  0  0  0  0  0  0  0
  1  2  2  0
  2  3  1  0
  3  4  1  0
  4  5  1  0
  5  6  1  0
  6  7  1  0
  7  8  1  0
  7  9  1  0
  9  2  1  0
  7  4  1  0
  3 10  1  0
  3 11  1  0
  4 12  1  0
  5 13  1  0
  5 14  1  0
  6 15  1  0
  6 16  1  0
  8 17  1  0
  9 18  1  0
  9 19  1  0
M  END
