
     RDKit          3D

 19 19  0  0  0  0  0  0  0  0999 V2000
   -3.0959   -0.2711    1.0660 O   0  0  0  0  0  0  0  0  0  0  0  0
   -2.0278   -0.0679    0.5467 C   0  0  0  0  0  0  0  0  0  0  0  0
   -1.5094   -0.9893   -0.4864 C   0  0  0  0  0  0  0  0  0  0  0  0
    0.0069   -0.9417   -0.3570 C   0  0  0  0  0  0  0  0  0  0  0  0
    0.5039    0.4473   -0.5369 C   0  0  0  0  0  0  0  0  0  0  0  0
    1.9255    0.5396    0.0384 C   0  0  0  0  0  0  0  0  0  0  0  0
    2.6043   -0.5487   -0.5200 O   0  0  0  0  0  0  0  0  0  0  0  0
   -0.3021    1.4427   -0.0923 O   0  0  0  0  0  0  0  0  0  0  0  0
   -1.1913    1.0944    0.9083 C   0  0  0  0  0  0  0  0  0  0  0  0
   -1.7822   -0.6156   -1.5146 H   0  0  0  0  0  0  0  0  0  0  0  0
   -1.8591   -2.0414   -0.3414 H   0  0  0  0  0  0  0  0  0  0  0  0
    0.4841   -1.6386   -1.0855 H   0  0  0  0  0  0  0  0  0  0  0  0
    0.2306   -1.3070    0.6819 H   0  0  0  0  0  0  0  0  0  0  0  0
    0.6524    0.6022   -1.6476 H   0  0  0  0  0  0  0  0  0  0  0  0
    2.4373    1.4578   -0.3236 H   0  0  0  0  0  0  0  0  0  0  0  0
    1.9376    0.4225    1.1217 H   0  0  0  0  0  0  0  0  0  0  0  0
    3.5652   -0.5269   -0.3737 H   0  0  0  0  0  0  0  0  0  0  0  0
   -1.8982    1.9673    1.0186 H   0  0  0  0  0  0  0  0  0  0  0  0
   -0.6817    0.9744    1.8974 H   0  0  0  0  0  0  0  0  0  0  0  0
  1  2  2  0
  2  3  1  0
  3  4  1  0
  4  5  1  0
  5  6  1  0
  6  7  1  0
  5  8  1  0
  8  9  1  0
  9  2  1  0
  3 10  1  0
  3 11  1  0
  4 12  1  0
  4 13  1  0
  5 14  1  0
  6 15  1  0
  6 16  1  0
  7 17  1  0
  9 18  1  0
  9 19  1  0
M  END
