
     RDKit          3D

 15 17  0  0  0  0  0  0  0  0999 V2000
    0.6786    1.8978    1.2453 O   0  0  0  0  0  0  0  0  0  0  0  0
    0.8695    0.9403    0.4885 C   0  0  0  0  0  0  0  0  0  0  0  0
    2.0732    0.3000   -0.0588 C   0  0  0  0  0  0  0  0  0  0  0  0
    2.1266   -0.1548   -1.3539 O   0  0  0  0  0  0  0  0  0  0  0  0
    1.1788   -0.8182   -0.5850 C   0  0  0  0  0  0  0  0  0  0  0  0
   -0.0030    0.0104   -0.2061 C   0  0  0  0  0  0  0  0  0  0  0  0
   -1.1219   -0.6202    0.5019 C   0  0  0  0  0  0  0  0  0  0  0  0
   -1.8879    0.4093   -0.3338 C   0  0  0  0  0  0  0  0  0  0  0  0
   -0.7922    0.4880   -1.2172 O   0  0  0  0  0  0  0  0  0  0  0  0
    2.9278    0.0465    0.5820 H   0  0  0  0  0  0  0  0  0  0  0  0
    1.3907   -1.7852   -0.1286 H   0  0  0  0  0  0  0  0  0  0  0  0
   -1.4416   -1.6215    0.2095 H   0  0  0  0  0  0  0  0  0  0  0  0
   -1.2154   -0.4567    1.5945 H   0  0  0  0  0  0  0  0  0  0  0  0
   -2.7523   -0.0133   -0.8845 H   0  0  0  0  0  0  0  0  0  0  0  0
   -2.0309    1.3775    0.1463 H   0  0  0  0  0  0  0  0  0  0  0  0
  1  2  2  0
  2  3  1  0
  3  4  1  0
  4  5  1  0
  5  6  1  0
  6  7  1  0
  7  8  1  0
  8  9  1  0
  6  2  1  0
  5  3  1  0
  9  6  1  0
  3 10  1  0
  5 11  1  0
  7 12  1  0
  7 13  1  0
  8 14  1  0
  8 15  1  0
M  END
