
     RDKit          3D

 12 13  0  0  0  0  0  0  0  0999 V2000
    3.1471    0.7999    0.1569 O   0  0  0  0  0  0  0  0  0  0  0  0
    1.9556    0.4135    0.0416 C   0  0  0  0  0  0  0  0  0  0  0  0
    1.4486   -0.8790   -0.0608 O   0  0  0  0  0  0  0  0  0  0  0  0
    0.1856   -0.8717   -0.6425 C   0  0  0  0  0  0  0  0  0  0  0  0
   -0.9631   -0.3863    0.1280 C   0  0  0  0  0  0  0  0  0  0  0  0
   -2.2582   -0.6128   -0.3824 O   0  0  0  0  0  0  0  0  0  0  0  0
   -0.1751    0.6003   -0.6636 C   0  0  0  0  0  0  0  0  0  0  0  0
    0.8703    1.2834   -0.0058 O   0  0  0  0  0  0  0  0  0  0  0  0
   -0.0183   -1.4431   -1.5714 H   0  0  0  0  0  0  0  0  0  0  0  0
   -0.9471   -0.2709    1.2205 H   0  0  0  0  0  0  0  0  0  0  0  0
   -2.6599    0.3106   -0.4430 H   0  0  0  0  0  0  0  0  0  0  0  0
   -0.5856    1.0561   -1.5698 H   0  0  0  0  0  0  0  0  0  0  0  0
  1  2  2  0
  2  3  1  0
  3  4  1  0
  4  5  1  0
  5  6  1  0
  5  7  1  0
  7  8  1  0
  8  2  1  0
  7  4  1  0
  4  9  1  0
  5 10  1  0
  6 11  1  0
  7 12  1  0
M  END
