
     RDKit          3D

 19 20  0  0  0  0  0  0  0  0999 V2000
    2.7762   -2.3217   -1.3811 O   0  0  0  0  0  0  0  0  0  0  0  0
    2.0521   -1.3422   -1.1066 C   0  0  0  0  0  0  0  0  0  0  0  0
    2.3080   -0.0501   -0.4123 C   0  0  0  0  0  0  0  0  0  0  0  0
    0.8405   -0.2410   -0.0592 C   0  0  0  0  0  0  0  0  0  0  0  0
    0.1469    1.0797    0.0530 C   0  0  0  0  0  0  0  0  0  0  0  0
   -1.3059    0.8844    0.4027 C   0  0  0  0  0  0  0  0  0  0  0  0
   -2.1583    0.1096   -0.5184 C   0  0  0  0  0  0  0  0  0  0  0  0
   -1.8385   -0.4112    0.8472 C   0  0  0  0  0  0  0  0  0  0  0  0
    0.7262   -0.9225   -1.2675 O   0  0  0  0  0  0  0  0  0  0  0  0
    2.9988   -0.0824    0.4312 H   0  0  0  0  0  0  0  0  0  0  0  0
    2.4568    0.7443   -1.1672 H   0  0  0  0  0  0  0  0  0  0  0  0
    0.7165   -0.8251    0.8706 H   0  0  0  0  0  0  0  0  0  0  0  0
    0.2381    1.6725   -0.8934 H   0  0  0  0  0  0  0  0  0  0  0  0
    0.6830    1.6750    0.8216 H   0  0  0  0  0  0  0  0  0  0  0  0
   -1.7739    1.7858    0.8554 H   0  0  0  0  0  0  0  0  0  0  0  0
   -3.2236    0.4207   -0.6820 H   0  0  0  0  0  0  0  0  0  0  0  0
   -1.7386   -0.4208   -1.4070 H   0  0  0  0  0  0  0  0  0  0  0  0
   -2.6474   -0.4133    1.6331 H   0  0  0  0  0  0  0  0  0  0  0  0
   -1.2569   -1.3418    0.8615 H   0  0  0  0  0  0  0  0  0  0  0  0
  1  2  2  0
  2  3  1  0
  3  4  1  0
  4  5  1  0
  5  6  1  0
  6  7  1  0
  7  8  1  0
  4  9  1  0
  9  2  1  0
  8  6  1  0
  3 10  1  0
  3 11  1  0
  4 12  1  0
  5 13  1  0
  5 14  1  0
  6 15  1  0
  7 16  1  0
  7 17  1  0
  8 18  1  0
  8 19  1  0
M  END
