
     RDKit          3D

 21 22  0  0  0  0  0  0  0  0999 V2000
   -2.6076   -0.3687   -0.8579 O   0  0  0  0  0  0  0  0  0  0  0  0
   -1.5682   -0.1369   -0.2573 C   0  0  0  0  0  0  0  0  0  0  0  0
   -1.1717    1.2695   -0.3305 C   0  0  0  0  0  0  0  0  0  0  0  0
    0.2062    1.6094    0.0433 C   0  0  0  0  0  0  0  0  0  0  0  0
    1.2197    0.5409   -0.0656 C   0  0  0  0  0  0  0  0  0  0  0  0
    0.8649   -0.5549   -1.0383 C   0  0  0  0  0  0  0  0  0  0  0  0
    0.4770   -1.4022    0.1502 C   0  0  0  0  0  0  0  0  0  0  0  0
   -1.0154   -1.3661    0.3724 C   0  0  0  0  0  0  0  0  0  0  0  0
    1.1522   -0.4321    1.0906 C   0  0  0  0  0  0  0  0  0  0  0  0
   -1.9214    1.8706    0.2612 H   0  0  0  0  0  0  0  0  0  0  0  0
   -1.3467    1.6067   -1.3947 H   0  0  0  0  0  0  0  0  0  0  0  0
    0.5899    2.5096   -0.5221 H   0  0  0  0  0  0  0  0  0  0  0  0
    0.2011    1.9655    1.1166 H   0  0  0  0  0  0  0  0  0  0  0  0
    2.2419    0.9544   -0.1780 H   0  0  0  0  0  0  0  0  0  0  0  0
    1.7847   -0.9093   -1.5637 H   0  0  0  0  0  0  0  0  0  0  0  0
    0.0405   -0.3160   -1.7398 H   0  0  0  0  0  0  0  0  0  0  0  0
    0.9158   -2.4133    0.1712 H   0  0  0  0  0  0  0  0  0  0  0  0
   -1.4777   -2.2660   -0.0558 H   0  0  0  0  0  0  0  0  0  0  0  0
   -1.2358   -1.4004    1.4680 H   0  0  0  0  0  0  0  0  0  0  0  0
    2.1582   -0.7466    1.4483 H   0  0  0  0  0  0  0  0  0  0  0  0
    0.4923   -0.0141    1.8819 H   0  0  0  0  0  0  0  0  0  0  0  0
  1  2  2  0
  2  3  1  0
  3  4  1  0
  4  5  1  0
  5  6  1  0
  6  7  1  0
  7  8  1  0
  7  9  1  0
  8  2  1  0
  9  5  1  0
  3 10  1  0
  3 11  1  0
  4 12  1  0
  4 13  1  0
  5 14  1  0
  6 15  1  0
  6 16  1  0
  7 17  1  0
  8 18  1  0
  8 19  1  0
  9 20  1  0
  9 21  1  0
M  END
