
     RDKit          3D

 14 15  0  0  0  0  0  0  0  0999 V2000
    2.9110    1.4628    0.5666 O   0  0  0  0  0  0  0  0  0  0  0  0
    1.8694    0.7882    0.3054 C   0  0  0  0  0  0  0  0  0  0  0  0
    1.8705   -0.6056   -0.1123 C   0  0  0  0  0  0  0  0  0  0  0  0
    0.6087   -0.9914   -0.2994 C   0  0  0  0  0  0  0  0  0  0  0  0
   -0.2783    0.1313   -0.0130 C   0  0  0  0  0  0  0  0  0  0  0  0
   -1.5463   -0.0208    0.7348 C   0  0  0  0  0  0  0  0  0  0  0  0
   -1.5185    0.4027   -0.7515 C   0  0  0  0  0  0  0  0  0  0  0  0
    0.5522    1.1874    0.3505 O   0  0  0  0  0  0  0  0  0  0  0  0
    2.7689   -1.1941   -0.2378 H   0  0  0  0  0  0  0  0  0  0  0  0
    0.3812   -2.0010   -0.6148 H   0  0  0  0  0  0  0  0  0  0  0  0
   -1.8957   -1.0341    0.9664 H   0  0  0  0  0  0  0  0  0  0  0  0
   -1.8691    0.7454    1.4669 H   0  0  0  0  0  0  0  0  0  0  0  0
   -1.8442    1.4582   -0.9459 H   0  0  0  0  0  0  0  0  0  0  0  0
   -2.0097   -0.3290   -1.4158 H   0  0  0  0  0  0  0  0  0  0  0  0
  1  2  2  0
  2  3  1  0
  3  4  2  0
  4  5  1  0
  5  6  1  0
  6  7  1  0
  5  8  1  0
  8  2  1  0
  7  5  1  0
  3  9  1  0
  4 10  1  0
  6 11  1  0
  6 12  1  0
  7 13  1  0
  7 14  1  0
M  END
