
     RDKit          3D

 15 17  0  0  0  0  0  0  0  0999 V2000
   -0.1146    2.4542    0.2504 O   0  0  0  0  0  0  0  0  0  0  0  0
   -0.2834    1.2542    0.1919 C   0  0  0  0  0  0  0  0  0  0  0  0
   -1.5956    0.5778    0.3413 C   0  0  0  0  0  0  0  0  0  0  0  0
   -2.2701    0.1223   -0.7652 O   0  0  0  0  0  0  0  0  0  0  0  0
   -1.3963   -0.8010   -0.2246 C   0  0  0  0  0  0  0  0  0  0  0  0
   -0.0147   -0.8228   -0.8204 C   0  0  0  0  0  0  0  0  0  0  0  0
    0.7172    0.2216   -0.0299 C   0  0  0  0  0  0  0  0  0  0  0  0
    1.8762   -0.0393    0.6659 C   0  0  0  0  0  0  0  0  0  0  0  0
    1.9499    0.5899   -0.6726 O   0  0  0  0  0  0  0  0  0  0  0  0
   -2.1726    0.7127    1.2752 H   0  0  0  0  0  0  0  0  0  0  0  0
   -1.7430   -1.6464    0.3662 H   0  0  0  0  0  0  0  0  0  0  0  0
    0.4505   -1.8227   -0.7699 H   0  0  0  0  0  0  0  0  0  0  0  0
   -0.0943   -0.4408   -1.8720 H   0  0  0  0  0  0  0  0  0  0  0  0
    2.3563   -1.0451    0.6822 H   0  0  0  0  0  0  0  0  0  0  0  0
    2.3345    0.6856    1.3817 H   0  0  0  0  0  0  0  0  0  0  0  0
  1  2  2  0
  2  3  1  0
  3  4  1  0
  4  5  1  0
  5  6  1  0
  6  7  1  0
  7  8  1  0
  8  9  1  0
  7  2  1  0
  5  3  1  0
  9  7  1  0
  3 10  1  0
  5 11  1  0
  6 12  1  0
  6 13  1  0
  8 14  1  0
  8 15  1  0
M  END
