
     RDKit          3D

 17 17  0  0  0  0  0  0  0  0999 V2000
   -1.0570    2.9571    0.1604 O   0  0  0  0  0  0  0  0  0  0  0  0
   -0.7079    1.7376    0.1540 C   0  0  0  0  0  0  0  0  0  0  0  0
    0.7444    1.6133    0.2621 C   0  0  0  0  0  0  0  0  0  0  0  0
    1.5970    0.6577    0.0091 C   0  0  0  0  0  0  0  0  0  0  0  0
    1.4687   -0.7355   -0.5040 C   0  0  0  0  0  0  0  0  0  0  0  0
    0.4427   -1.4117    0.3180 C   0  0  0  0  0  0  0  0  0  0  0  0
   -0.8841   -1.2773    0.3631 C   0  0  0  0  0  0  0  0  0  0  0  0
   -1.9346   -0.4644   -0.3141 C   0  0  0  0  0  0  0  0  0  0  0  0
   -1.8085    0.8953    0.0465 O   0  0  0  0  0  0  0  0  0  0  0  0
    1.2067    2.5229    0.6369 H   0  0  0  0  0  0  0  0  0  0  0  0
    2.6119    0.9251    0.2117 H   0  0  0  0  0  0  0  0  0  0  0  0
    2.4399   -1.2298   -0.4852 H   0  0  0  0  0  0  0  0  0  0  0  0
    1.0997   -0.7312   -1.5585 H   0  0  0  0  0  0  0  0  0  0  0  0
    0.8370   -2.1469    1.0061 H   0  0  0  0  0  0  0  0  0  0  0  0
   -1.2965   -1.9697    1.1178 H   0  0  0  0  0  0  0  0  0  0  0  0
   -1.8332   -0.5049   -1.4291 H   0  0  0  0  0  0  0  0  0  0  0  0
   -2.9261   -0.8377    0.0052 H   0  0  0  0  0  0  0  0  0  0  0  0
  1  2  2  0
  2  3  1  0
  3  4  2  3
  4  5  1  0
  5  6  1  0
  6  7  2  3
  7  8  1  0
  8  9  1  0
  9  2  1  0
  3 10  1  0
  4 11  1  0
  5 12  1  0
  5 13  1  0
  6 14  1  0
  7 15  1  0
  8 16  1  0
  8 17  1  0
M  END
