
     RDKit          3D

 16 17  0  0  0  0  0  0  0  0999 V2000
    0.9753   -1.1116    2.1346 O   0  0  0  0  0  0  0  0  0  0  0  0
    0.6274   -0.5700    1.1249 C   0  0  0  0  0  0  0  0  0  0  0  0
    1.4642   -0.1246   -0.0165 C   0  0  0  0  0  0  0  0  0  0  0  0
    0.4990    0.6103   -0.9307 C   0  0  0  0  0  0  0  0  0  0  0  0
   -0.4538    1.1932    0.1337 C   0  0  0  0  0  0  0  0  0  0  0  0
   -0.7522   -0.1956    0.7425 C   0  0  0  0  0  0  0  0  0  0  0  0
   -1.1339   -0.8857   -0.5538 C   0  0  0  0  0  0  0  0  0  0  0  0
   -0.3433   -0.3025   -1.5444 O   0  0  0  0  0  0  0  0  0  0  0  0
    1.8351   -0.9973   -0.5932 H   0  0  0  0  0  0  0  0  0  0  0  0
    2.3285    0.4723    0.2651 H   0  0  0  0  0  0  0  0  0  0  0  0
    0.9288    1.3461   -1.5695 H   0  0  0  0  0  0  0  0  0  0  0  0
    0.0663    1.8402    0.8310 H   0  0  0  0  0  0  0  0  0  0  0  0
   -1.3757    1.5641   -0.3003 H   0  0  0  0  0  0  0  0  0  0  0  0
   -1.4869   -0.1849    1.5057 H   0  0  0  0  0  0  0  0  0  0  0  0
   -2.2077   -0.6752   -0.7382 H   0  0  0  0  0  0  0  0  0  0  0  0
   -0.9711   -1.9787   -0.4910 H   0  0  0  0  0  0  0  0  0  0  0  0
  1  2  2  0
  2  3  1  0
  3  4  1  0
  4  5  1  0
  5  6  1  0
  6  7  1  0
  7  8  1  0
  6  2  1  0
  8  4  1  0
  3  9  1  0
  3 10  1  0
  4 11  1  0
  5 12  1  0
  5 13  1  0
  6 14  1  0
  7 15  1  0
  7 16  1  0
M  END
