
     RDKit          3D

 19 20  0  0  0  0  0  0  0  0999 V2000
   -2.3133   -1.7545   -0.8685 O   0  0  0  0  0  0  0  0  0  0  0  0
   -1.7935   -0.7876   -0.3491 C   0  0  0  0  0  0  0  0  0  0  0  0
   -2.3388    0.3238    0.4762 C   0  0  0  0  0  0  0  0  0  0  0  0
   -0.9041    0.7304    0.7088 C   0  0  0  0  0  0  0  0  0  0  0  0
   -0.2110    1.1698   -0.5388 C   0  0  0  0  0  0  0  0  0  0  0  0
   -0.4215   -0.2592   -0.2828 C   0  0  0  0  0  0  0  0  0  0  0  0
    0.7346   -1.1668   -0.0124 C   0  0  0  0  0  0  0  0  0  0  0  0
    2.0264   -0.3831    0.0011 C   0  0  0  0  0  0  0  0  0  0  0  0
    2.3046    0.2581   -1.1792 O   0  0  0  0  0  0  0  0  0  0  0  0
   -2.8693    1.0550   -0.1784 H   0  0  0  0  0  0  0  0  0  0  0  0
   -2.9169    0.0325    1.3564 H   0  0  0  0  0  0  0  0  0  0  0  0
   -0.4917    0.8551    1.7002 H   0  0  0  0  0  0  0  0  0  0  0  0
   -0.8471    1.5944   -1.3634 H   0  0  0  0  0  0  0  0  0  0  0  0
    0.7019    1.7307   -0.3635 H   0  0  0  0  0  0  0  0  0  0  0  0
    0.6672   -1.6975    0.9541 H   0  0  0  0  0  0  0  0  0  0  0  0
    0.8178   -1.8952   -0.8432 H   0  0  0  0  0  0  0  0  0  0  0  0
    2.0023    0.3047    0.8683 H   0  0  0  0  0  0  0  0  0  0  0  0
    2.8839   -1.0812    0.2039 H   0  0  0  0  0  0  0  0  0  0  0  0
    2.9684    0.9707   -1.0051 H   0  0  0  0  0  0  0  0  0  0  0  0
  1  2  2  0
  2  3  1  0
  3  4  1  0
  4  5  1  0
  5  6  1  0
  6  7  1  0
  7  8  1  0
  8  9  1  0
  6  2  1  0
  6  4  1  0
  3 10  1  0
  3 11  1  0
  4 12  1  0
  5 13  1  0
  5 14  1  0
  7 15  1  0
  7 16  1  0
  8 17  1  0
  8 18  1  0
  9 19  1  0
M  END
