
     RDKit          3D

 15 17  0  0  0  0  0  0  0  0999 V2000
   -1.8185    2.4286   -0.5875 O   0  0  0  0  0  0  0  0  0  0  0  0
   -1.5866    1.2041   -0.4057 C   0  0  0  0  0  0  0  0  0  0  0  0
   -2.3196    0.0432   -0.6362 O   0  0  0  0  0  0  0  0  0  0  0  0
   -1.4917   -0.7128    0.2463 C   0  0  0  0  0  0  0  0  0  0  0  0
   -0.5214    0.4149    0.0986 C   0  0  0  0  0  0  0  0  0  0  0  0
    0.1730    0.7006    1.2072 O   0  0  0  0  0  0  0  0  0  0  0  0
    1.3776    0.2261    0.7643 C   0  0  0  0  0  0  0  0  0  0  0  0
    1.5497   -0.9372   -0.1128 C   0  0  0  0  0  0  0  0  0  0  0  0
    0.7210    0.1853   -0.6571 C   0  0  0  0  0  0  0  0  0  0  0  0
   -1.1161   -1.6537   -0.1461 H   0  0  0  0  0  0  0  0  0  0  0  0
   -1.8557   -0.7723    1.2856 H   0  0  0  0  0  0  0  0  0  0  0  0
    2.2258    0.9218    0.8786 H   0  0  0  0  0  0  0  0  0  0  0  0
    0.9934   -1.8843    0.0239 H   0  0  0  0  0  0  0  0  0  0  0  0
    2.5316   -1.0685   -0.5803 H   0  0  0  0  0  0  0  0  0  0  0  0
    1.1374    0.9042   -1.3789 H   0  0  0  0  0  0  0  0  0  0  0  0
  1  2  2  0
  2  3  1  0
  3  4  1  0
  4  5  1  0
  5  6  1  0
  6  7  1  0
  7  8  1  0
  8  9  1  0
  5  2  1  0
  9  7  1  0
  9  5  1  0
  4 10  1  0
  4 11  1  0
  7 12  1  0
  8 13  1  0
  8 14  1  0
  9 15  1  0
M  END
