
     RDKit          3D

 14 16  0  0  0  0  0  0  0  0999 V2000
    1.4256   -1.2848   -1.8171 O   0  0  0  0  0  0  0  0  0  0  0  0
    0.9176   -0.7228   -0.8816 C   0  0  0  0  0  0  0  0  0  0  0  0
   -0.2987   -0.9308   -0.0807 C   0  0  0  0  0  0  0  0  0  0  0  0
   -1.4194    0.0006   -0.5174 C   0  0  0  0  0  0  0  0  0  0  0  0
   -1.0396    1.2802   -0.2243 O   0  0  0  0  0  0  0  0  0  0  0  0
    0.1168    1.2623    0.5340 C   0  0  0  0  0  0  0  0  0  0  0  0
    1.2370    0.4629   -0.0443 C   0  0  0  0  0  0  0  0  0  0  0  0
    0.3386   -0.0938    0.9918 C   0  0  0  0  0  0  0  0  0  0  0  0
   -0.5847   -1.9416    0.1733 H   0  0  0  0  0  0  0  0  0  0  0  0
   -1.6418   -0.1082   -1.6055 H   0  0  0  0  0  0  0  0  0  0  0  0
   -2.3323   -0.2401    0.1007 H   0  0  0  0  0  0  0  0  0  0  0  0
    0.3857    2.1112    1.1455 H   0  0  0  0  0  0  0  0  0  0  0  0
    2.2673    0.6584    0.2760 H   0  0  0  0  0  0  0  0  0  0  0  0
    0.6280   -0.4534    1.9496 H   0  0  0  0  0  0  0  0  0  0  0  0
  1  2  2  0
  2  3  1  0
  3  4  1  0
  4  5  1  0
  5  6  1  0
  6  7  1  0
  7  8  1  0
  7  2  1  0
  8  3  1  0
  8  6  1  0
  3  9  1  0
  4 10  1  0
  4 11  1  0
  6 12  1  0
  7 13  1  0
  8 14  1  0
M  END
