
     RDKit          3D

 16 18  0  0  0  0  0  0  0  0999 V2000
   -0.0535   -2.1661    1.4381 O   0  0  0  0  0  0  0  0  0  0  0  0
    0.1396   -1.1209    0.8852 C   0  0  0  0  0  0  0  0  0  0  0  0
    1.1965   -0.0457    0.7959 C   0  0  0  0  0  0  0  0  0  0  0  0
    2.0826    0.2503   -0.2636 C   0  0  0  0  0  0  0  0  0  0  0  0
    0.8153   -0.2606   -0.7326 C   0  0  0  0  0  0  0  0  0  0  0  0
   -0.5193   -0.2006   -0.0650 C   0  0  0  0  0  0  0  0  0  0  0  0
   -1.8076   -0.2420   -0.6060 C   0  0  0  0  0  0  0  0  0  0  0  0
   -1.2856    0.9626    0.2528 C   0  0  0  0  0  0  0  0  0  0  0  0
    0.6994    0.8700    1.2548 H   0  0  0  0  0  0  0  0  0  0  0  0
    3.0520   -0.3317   -0.3112 H   0  0  0  0  0  0  0  0  0  0  0  0
    2.2988    1.3187   -0.5699 H   0  0  0  0  0  0  0  0  0  0  0  0
    0.9319   -1.3398   -1.0806 H   0  0  0  0  0  0  0  0  0  0  0  0
   -1.9849    0.0028   -1.6879 H   0  0  0  0  0  0  0  0  0  0  0  0
   -2.6510   -0.7689   -0.1385 H   0  0  0  0  0  0  0  0  0  0  0  0
   -1.8231    1.1721    1.1769 H   0  0  0  0  0  0  0  0  0  0  0  0
   -1.0910    1.8997   -0.3485 H   0  0  0  0  0  0  0  0  0  0  0  0
  1  2  2  0
  2  3  1  0
  3  4  1  0
  4  5  1  0
  5  6  1  0
  6  7  1  0
  7  8  1  0
  6  2  1  0
  5  3  1  0
  8  6  1  0
  3  9  1  0
  4 10  1  0
  4 11  1  0
  5 12  1  0
  7 13  1  0
  7 14  1  0
  8 15  1  0
  8 16  1  0
M  END
