
     RDKit          3D

 17 18  0  0  0  0  0  0  0  0999 V2000
    2.6705    1.7514    0.5996 O   0  0  0  0  0  0  0  0  0  0  0  0
    1.8140    0.8547    0.4974 C   0  0  0  0  0  0  0  0  0  0  0  0
    2.0477   -0.3312   -0.3127 C   0  0  0  0  0  0  0  0  0  0  0  0
    0.7585   -0.7213   -1.0018 C   0  0  0  0  0  0  0  0  0  0  0  0
   -0.4022   -0.5173   -0.4439 C   0  0  0  0  0  0  0  0  0  0  0  0
   -1.8875   -0.5599   -0.3748 C   0  0  0  0  0  0  0  0  0  0  0  0
   -1.7467    0.7675    0.3876 C   0  0  0  0  0  0  0  0  0  0  0  0
   -0.4903    0.1232    0.9247 C   0  0  0  0  0  0  0  0  0  0  0  0
    0.6085    0.9647    1.1575 O   0  0  0  0  0  0  0  0  0  0  0  0
    2.4101   -1.2135    0.2448 H   0  0  0  0  0  0  0  0  0  0  0  0
    2.7384   -0.0469   -1.1476 H   0  0  0  0  0  0  0  0  0  0  0  0
    0.7936   -1.1838   -1.9871 H   0  0  0  0  0  0  0  0  0  0  0  0
   -2.2340   -1.3505    0.2874 H   0  0  0  0  0  0  0  0  0  0  0  0
   -2.4103   -0.4587   -1.3407 H   0  0  0  0  0  0  0  0  0  0  0  0
   -2.5491    0.9495    1.0976 H   0  0  0  0  0  0  0  0  0  0  0  0
   -1.4774    1.5788   -0.3087 H   0  0  0  0  0  0  0  0  0  0  0  0
   -0.6436   -0.6068    1.7206 H   0  0  0  0  0  0  0  0  0  0  0  0
  1  2  2  0
  2  3  1  0
  3  4  1  0
  4  5  2  0
  5  6  1  0
  6  7  1  0
  7  8  1  0
  8  9  1  0
  9  2  1  0
  8  5  1  0
  3 10  1  0
  3 11  1  0
  4 12  1  0
  6 13  1  0
  6 14  1  0
  7 15  1  0
  7 16  1  0
  8 17  1  0
M  END
