
     RDKit          3D

 15 16  0  0  0  0  0  0  0  0999 V2000
    3.1721    0.5674    0.8481 O   0  0  0  0  0  0  0  0  0  0  0  0
    2.0237    0.2491    0.4625 C   0  0  0  0  0  0  0  0  0  0  0  0
    1.7185   -0.8780   -0.4033 C   0  0  0  0  0  0  0  0  0  0  0  0
    0.4155   -0.9304   -0.6148 C   0  0  0  0  0  0  0  0  0  0  0  0
   -0.1904    0.1717    0.1117 C   0  0  0  0  0  0  0  0  0  0  0  0
   -1.4320   -0.1332    0.9063 C   0  0  0  0  0  0  0  0  0  0  0  0
   -1.8438    1.1853    0.6214 O   0  0  0  0  0  0  0  0  0  0  0  0
   -1.2010    1.0121   -0.6272 C   0  0  0  0  0  0  0  0  0  0  0  0
    0.8190    0.8651    0.7534 O   0  0  0  0  0  0  0  0  0  0  0  0
    2.4526   -1.5861   -0.8241 H   0  0  0  0  0  0  0  0  0  0  0  0
   -0.0504   -1.6775   -1.2237 H   0  0  0  0  0  0  0  0  0  0  0  0
   -2.0654   -0.8485    0.3658 H   0  0  0  0  0  0  0  0  0  0  0  0
   -1.1874   -0.3350    1.9463 H   0  0  0  0  0  0  0  0  0  0  0  0
   -1.8675    0.4219   -1.2763 H   0  0  0  0  0  0  0  0  0  0  0  0
   -0.7635    1.9161   -1.0462 H   0  0  0  0  0  0  0  0  0  0  0  0
  1  2  2  0
  2  3  1  0
  3  4  2  0
  4  5  1  0
  5  6  1  0
  6  7  1  0
  7  8  1  0
  5  9  1  0
  9  2  1  0
  8  5  1  0
  3 10  1  0
  4 11  1  0
  6 12  1  0
  6 13  1  0
  8 14  1  0
  8 15  1  0
M  END
