
     RDKit          3D

 17 18  0  0  0  0  0  0  0  0999 V2000
    0.6605    2.7605    0.5066 O   0  0  0  0  0  0  0  0  0  0  0  0
    0.7877    1.5507    0.2039 C   0  0  0  0  0  0  0  0  0  0  0  0
    1.9528    0.8475    0.4569 O   0  0  0  0  0  0  0  0  0  0  0  0
    1.7887   -0.5575    0.5252 C   0  0  0  0  0  0  0  0  0  0  0  0
    1.1677   -1.0958   -0.5739 O   0  0  0  0  0  0  0  0  0  0  0  0
    0.0157   -0.4994   -0.9756 C   0  0  0  0  0  0  0  0  0  0  0  0
   -1.2543   -1.0426   -0.3169 C   0  0  0  0  0  0  0  0  0  0  0  0
   -1.3289    0.2225    0.5082 C   0  0  0  0  0  0  0  0  0  0  0  0
   -0.3083    0.8279   -0.4378 C   0  0  0  0  0  0  0  0  0  0  0  0
    1.1911   -0.7559    1.4422 H   0  0  0  0  0  0  0  0  0  0  0  0
    2.7980   -0.9888    0.6301 H   0  0  0  0  0  0  0  0  0  0  0  0
   -0.0961   -0.5537   -2.0791 H   0  0  0  0  0  0  0  0  0  0  0  0
   -1.0983   -1.9461    0.2949 H   0  0  0  0  0  0  0  0  0  0  0  0
   -2.1134   -1.1511   -0.9917 H   0  0  0  0  0  0  0  0  0  0  0  0
   -1.0311    0.1429    1.5543 H   0  0  0  0  0  0  0  0  0  0  0  0
   -2.3190    0.7322    0.4404 H   0  0  0  0  0  0  0  0  0  0  0  0
   -0.8129    1.5067   -1.1877 H   0  0  0  0  0  0  0  0  0  0  0  0
  1  2  2  0
  2  3  1  0
  3  4  1  0
  4  5  1  0
  5  6  1  0
  6  7  1  0
  7  8  1  0
  8  9  1  0
  9  2  1  0
  9  6  1  0
  4 10  1  0
  4 11  1  0
  6 12  1  0
  7 13  1  0
  7 14  1  0
  8 15  1  0
  8 16  1  0
  9 17  1  0
M  END
