
     RDKit          3D

 17 17  0  0  0  0  0  0  0  0999 V2000
   -0.9678   -1.7132   -1.5819 O   0  0  0  0  0  0  0  0  0  0  0  0
   -0.4781   -1.0571   -0.6769 C   0  0  0  0  0  0  0  0  0  0  0  0
    0.8998   -1.3939   -0.3467 C   0  0  0  0  0  0  0  0  0  0  0  0
    1.7779   -0.4579   -0.0500 O   0  0  0  0  0  0  0  0  0  0  0  0
    1.5259    0.7135    0.5189 C   0  0  0  0  0  0  0  0  0  0  0  0
    0.4750    1.5653   -0.0292 C   0  0  0  0  0  0  0  0  0  0  0  0
   -0.7934    1.2756   -0.3163 C   0  0  0  0  0  0  0  0  0  0  0  0
   -1.4293   -0.0552   -0.1234 C   0  0  0  0  0  0  0  0  0  0  0  0
   -1.6281   -0.2310    1.2427 O   0  0  0  0  0  0  0  0  0  0  0  0
    1.3536   -2.0745   -1.1330 H   0  0  0  0  0  0  0  0  0  0  0  0
    0.8269   -2.0895    0.5488 H   0  0  0  0  0  0  0  0  0  0  0  0
    2.4599    1.3298    0.5286 H   0  0  0  0  0  0  0  0  0  0  0  0
    1.3267    0.5383    1.6209 H   0  0  0  0  0  0  0  0  0  0  0  0
    0.6928    2.6232   -0.2663 H   0  0  0  0  0  0  0  0  0  0  0  0
   -1.4222    2.0538   -0.7203 H   0  0  0  0  0  0  0  0  0  0  0  0
   -2.3897   -0.0550   -0.6349 H   0  0  0  0  0  0  0  0  0  0  0  0
   -2.2299   -0.9722    1.4191 H   0  0  0  0  0  0  0  0  0  0  0  0
  1  2  2  0
  2  3  1  0
  3  4  1  0
  4  5  1  0
  5  6  1  0
  6  7  2  0
  7  8  1  0
  8  9  1  0
  8  2  1  0
  3 10  1  0
  3 11  1  0
  5 12  1  0
  5 13  1  0
  6 14  1  0
  7 15  1  0
  8 16  1  0
  9 17  1  0
M  END
