
     RDKit          3D

 14 14  0  0  0  0  0  0  0  0999 V2000
    3.0903    1.1827   -0.0759 O   0  0  0  0  0  0  0  0  0  0  0  0
    2.0127    0.5057    0.0358 C   0  0  0  0  0  0  0  0  0  0  0  0
    1.9219   -0.8787   -0.0779 O   0  0  0  0  0  0  0  0  0  0  0  0
    0.5515   -1.2608   -0.2328 C   0  0  0  0  0  0  0  0  0  0  0  0
   -0.1337    0.0513   -0.3564 C   0  0  0  0  0  0  0  0  0  0  0  0
   -1.5203    0.0953    0.1946 C   0  0  0  0  0  0  0  0  0  0  0  0
   -2.0035    1.4050   -0.0007 O   0  0  0  0  0  0  0  0  0  0  0  0
    0.7292    0.9673    0.2865 O   0  0  0  0  0  0  0  0  0  0  0  0
    0.2101   -1.8943    0.6000 H   0  0  0  0  0  0  0  0  0  0  0  0
    0.4982   -1.8741   -1.1543 H   0  0  0  0  0  0  0  0  0  0  0  0
   -0.1746    0.3404   -1.4208 H   0  0  0  0  0  0  0  0  0  0  0  0
   -1.6140   -0.1322    1.2536 H   0  0  0  0  0  0  0  0  0  0  0  0
   -2.1551   -0.5654   -0.4498 H   0  0  0  0  0  0  0  0  0  0  0  0
   -1.4125    2.0579    0.4586 H   0  0  0  0  0  0  0  0  0  0  0  0
  1  2  2  0
  2  3  1  0
  3  4  1  0
  4  5  1  0
  5  6  1  0
  6  7  1  0
  5  8  1  0
  8  2  1  0
  4  9  1  0
  4 10  1  0
  5 11  1  0
  6 12  1  0
  6 13  1  0
  7 14  1  0
M  END
