
     RDKit          3D

 13 13  0  0  0  0  0  0  0  0999 V2000
    2.8573   -0.1759   -0.6108 O   0  0  0  0  0  0  0  0  0  0  0  0
    1.7322   -0.0919   -0.0955 C   0  0  0  0  0  0  0  0  0  0  0  0
    1.1341    1.1411    0.0906 O   0  0  0  0  0  0  0  0  0  0  0  0
   -0.2626    1.2656    0.2766 C   0  0  0  0  0  0  0  0  0  0  0  0
   -0.9234    0.0710   -0.3652 C   0  0  0  0  0  0  0  0  0  0  0  0
   -0.3774   -1.2096    0.2011 C   0  0  0  0  0  0  0  0  0  0  0  0
    1.0332   -1.2148    0.3116 O   0  0  0  0  0  0  0  0  0  0  0  0
   -0.4835    1.3445    1.3581 H   0  0  0  0  0  0  0  0  0  0  0  0
   -0.5873    2.1751   -0.2764 H   0  0  0  0  0  0  0  0  0  0  0  0
   -2.0064    0.1017   -0.2056 H   0  0  0  0  0  0  0  0  0  0  0  0
   -0.6473    0.0998   -1.4453 H   0  0  0  0  0  0  0  0  0  0  0  0
   -0.8050   -1.4332    1.2053 H   0  0  0  0  0  0  0  0  0  0  0  0
   -0.6638   -2.0736   -0.4446 H   0  0  0  0  0  0  0  0  0  0  0  0
  1  2  2  0
  2  3  1  0
  3  4  1  0
  4  5  1  0
  5  6  1  0
  6  7  1  0
  7  2  1  0
  4  8  1  0
  4  9  1  0
  5 10  1  0
  5 11  1  0
  6 12  1  0
  6 13  1  0
M  END
