
     RDKit          3D

 15 17  0  0  0  0  0  0  0  0999 V2000
    2.4675    1.9138    0.4234 O   0  0  0  0  0  0  0  0  0  0  0  0
    1.7924    0.9518    0.0526 C   0  0  0  0  0  0  0  0  0  0  0  0
    2.1047   -0.3684   -0.4229 O   0  0  0  0  0  0  0  0  0  0  0  0
    0.9266   -1.2076   -0.2669 C   0  0  0  0  0  0  0  0  0  0  0  0
   -0.4434   -0.9679   -0.6179 C   0  0  0  0  0  0  0  0  0  0  0  0
   -1.6359   -0.1597   -0.0074 C   0  0  0  0  0  0  0  0  0  0  0  0
   -0.9390    1.1895   -0.0032 C   0  0  0  0  0  0  0  0  0  0  0  0
    0.3410    0.9981    0.0253 C   0  0  0  0  0  0  0  0  0  0  0  0
    0.2621   -0.4746    0.6494 C   0  0  0  0  0  0  0  0  0  0  0  0
    1.2532   -2.2642   -0.1132 H   0  0  0  0  0  0  0  0  0  0  0  0
   -0.3749   -0.4863   -1.6115 H   0  0  0  0  0  0  0  0  0  0  0  0
   -1.9089   -0.5136    0.9742 H   0  0  0  0  0  0  0  0  0  0  0  0
   -2.4631   -0.2233   -0.6863 H   0  0  0  0  0  0  0  0  0  0  0  0
   -1.3230    2.1963   -0.0166 H   0  0  0  0  0  0  0  0  0  0  0  0
   -0.0591   -0.5841    1.6209 H   0  0  0  0  0  0  0  0  0  0  0  0
  1  2  2  0
  2  3  1  0
  3  4  1  0
  4  5  1  0
  5  6  1  0
  6  7  1  0
  7  8  2  0
  8  9  1  0
  8  2  1  0
  9  4  1  0
  9  5  1  0
  4 10  1  0
  5 11  1  0
  6 12  1  0
  6 13  1  0
  7 14  1  0
  9 15  1  0
M  END
