
     RDKit          3D

 17 17  0  0  0  0  0  0  0  0999 V2000
    2.4433    1.4383   -0.4677 O   0  0  0  0  0  0  0  0  0  0  0  0
    1.4531    0.7201   -0.1737 C   0  0  0  0  0  0  0  0  0  0  0  0
    1.6549   -0.7192   -0.3120 C   0  0  0  0  0  0  0  0  0  0  0  0
    0.7864   -1.6571    0.0608 C   0  0  0  0  0  0  0  0  0  0  0  0
   -0.5299   -1.5026    0.6751 C   0  0  0  0  0  0  0  0  0  0  0  0
   -1.2820   -0.4175    0.5721 C   0  0  0  0  0  0  0  0  0  0  0  0
   -1.0278    0.8552   -0.1397 C   0  0  0  0  0  0  0  0  0  0  0  0
   -1.0747    0.5970   -1.5109 O   0  0  0  0  0  0  0  0  0  0  0  0
    0.2722    1.5088    0.2583 C   0  0  0  0  0  0  0  0  0  0  0  0
    2.5715   -1.0865   -0.7478 H   0  0  0  0  0  0  0  0  0  0  0  0
    1.0754   -2.7074   -0.1055 H   0  0  0  0  0  0  0  0  0  0  0  0
   -0.9141   -2.3431    1.2576 H   0  0  0  0  0  0  0  0  0  0  0  0
   -2.2131   -0.4954    1.0919 H   0  0  0  0  0  0  0  0  0  0  0  0
   -1.8367    1.5699    0.0866 H   0  0  0  0  0  0  0  0  0  0  0  0
   -1.9109    0.0681   -1.6550 H   0  0  0  0  0  0  0  0  0  0  0  0
    0.2949    2.5001   -0.2404 H   0  0  0  0  0  0  0  0  0  0  0  0
    0.2376    1.6713    1.3505 H   0  0  0  0  0  0  0  0  0  0  0  0
  1  2  2  0
  2  3  1  0
  3  4  2  0
  4  5  1  0
  5  6  2  0
  6  7  1  0
  7  8  1  0
  7  9  1  0
  9  2  1  0
  3 10  1  0
  4 11  1  0
  5 12  1  0
  6 13  1  0
  7 14  1  0
  8 15  1  0
  9 16  1  0
  9 17  1  0
M  END
