
     RDKit          3D

 19 20  0  0  0  0  0  0  0  0999 V2000
   -3.1836    0.5710    0.4623 O   0  0  0  0  0  0  0  0  0  0  0  0
   -2.0600    0.1577    0.2672 C   0  0  0  0  0  0  0  0  0  0  0  0
   -1.3779   -1.1128    0.5192 C   0  0  0  0  0  0  0  0  0  0  0  0
   -0.2835   -0.6639   -0.4470 C   0  0  0  0  0  0  0  0  0  0  0  0
    1.0577   -0.8944    0.1329 C   0  0  0  0  0  0  0  0  0  0  0  0
    1.9289    0.3026    0.2743 C   0  0  0  0  0  0  0  0  0  0  0  0
    1.3141    1.5050    0.0407 O   0  0  0  0  0  0  0  0  0  0  0  0
    0.0593    1.4740    0.6527 C   0  0  0  0  0  0  0  0  0  0  0  0
   -0.8306    0.7112   -0.3118 C   0  0  0  0  0  0  0  0  0  0  0  0
   -1.8586   -2.0302    0.1401 H   0  0  0  0  0  0  0  0  0  0  0  0
   -0.9974   -1.2324    1.5603 H   0  0  0  0  0  0  0  0  0  0  0  0
   -0.4542   -1.0427   -1.4945 H   0  0  0  0  0  0  0  0  0  0  0  0
    1.5590   -1.6839   -0.5037 H   0  0  0  0  0  0  0  0  0  0  0  0
    1.0024   -1.3855    1.1505 H   0  0  0  0  0  0  0  0  0  0  0  0
    2.7741    0.2147   -0.4613 H   0  0  0  0  0  0  0  0  0  0  0  0
    2.4033    0.3755    1.2974 H   0  0  0  0  0  0  0  0  0  0  0  0
   -0.2697    2.5063    0.8072 H   0  0  0  0  0  0  0  0  0  0  0  0
    0.1679    0.9238    1.6161 H   0  0  0  0  0  0  0  0  0  0  0  0
   -0.9511    1.3039   -1.2356 H   0  0  0  0  0  0  0  0  0  0  0  0
  1  2  2  0
  2  3  1  0
  3  4  1  0
  4  5  1  0
  5  6  1  0
  6  7  1  0
  7  8  1  0
  8  9  1  0
  9  2  1  0
  9  4  1  0
  3 10  1  0
  3 11  1  0
  4 12  1  0
  5 13  1  0
  5 14  1  0
  6 15  1  0
  6 16  1  0
  8 17  1  0
  8 18  1  0
  9 19  1  0
M  END
