
     RDKit          3D

 15 16  0  0  0  0  0  0  0  0999 V2000
   -1.2479    2.2352    0.5783 O   0  0  0  0  0  0  0  0  0  0  0  0
   -0.4468    1.3427    0.2231 C   0  0  0  0  0  0  0  0  0  0  0  0
    0.8576    1.6390   -0.1346 O   0  0  0  0  0  0  0  0  0  0  0  0
    1.7783    0.5751   -0.4277 C   0  0  0  0  0  0  0  0  0  0  0  0
    1.4584   -0.5783    0.4572 C   0  0  0  0  0  0  0  0  0  0  0  0
    0.2022   -0.8917    0.7567 C   0  0  0  0  0  0  0  0  0  0  0  0
   -0.8727   -0.0491    0.1764 C   0  0  0  0  0  0  0  0  0  0  0  0
   -2.0711   -0.5683   -0.2891 C   0  0  0  0  0  0  0  0  0  0  0  0
   -1.0459   -0.4634   -1.2518 O   0  0  0  0  0  0  0  0  0  0  0  0
    1.6219    0.2368   -1.4671 H   0  0  0  0  0  0  0  0  0  0  0  0
    2.7904    0.9695   -0.2596 H   0  0  0  0  0  0  0  0  0  0  0  0
    2.2882   -1.1791    0.8678 H   0  0  0  0  0  0  0  0  0  0  0  0
   -0.0014   -1.7478    1.4118 H   0  0  0  0  0  0  0  0  0  0  0  0
   -2.9356    0.0850   -0.5525 H   0  0  0  0  0  0  0  0  0  0  0  0
   -2.3755   -1.6058   -0.0889 H   0  0  0  0  0  0  0  0  0  0  0  0
  1  2  2  0
  2  3  1  0
  3  4  1  0
  4  5  1  0
  5  6  2  0
  6  7  1  0
  7  8  1  0
  8  9  1  0
  7  2  1  0
  9  7  1  0
  4 10  1  0
  4 11  1  0
  5 12  1  0
  6 13  1  0
  8 14  1  0
  8 15  1  0
M  END
