
     RDKit          3D

 12 14  0  0  0  0  0  0  0  0999 V2000
    0.9009    2.0565   -0.9590 O   0  0  0  0  0  0  0  0  0  0  0  0
    0.5455    1.0511   -0.4709 C   0  0  0  0  0  0  0  0  0  0  0  0
    1.2746    0.0665    0.3456 C   0  0  0  0  0  0  0  0  0  0  0  0
    0.9628   -1.1080   -0.3284 O   0  0  0  0  0  0  0  0  0  0  0  0
   -0.4484   -1.0134   -0.4055 C   0  0  0  0  0  0  0  0  0  0  0  0
   -0.8105   -0.2786    0.7997 C   0  0  0  0  0  0  0  0  0  0  0  0
    0.4257   -0.0364    1.4432 O   0  0  0  0  0  0  0  0  0  0  0  0
   -0.7883    0.4167   -0.5117 C   0  0  0  0  0  0  0  0  0  0  0  0
    2.2988    0.2511    0.5460 H   0  0  0  0  0  0  0  0  0  0  0  0
   -1.0183   -1.8219   -0.8451 H   0  0  0  0  0  0  0  0  0  0  0  0
   -1.7073   -0.4198    1.3906 H   0  0  0  0  0  0  0  0  0  0  0  0
   -1.6355    0.8361   -1.0045 H   0  0  0  0  0  0  0  0  0  0  0  0
  1  2  2  0
  2  3  1  0
  3  4  1  0
  4  5  1  0
  5  6  1  0
  6  7  1  0
  6  8  1  0
  8  2  1  0
  7  3  1  0
  8  5  1  0
  3  9  1  0
  5 10  1  0
  6 11  1  0
  8 12  1  0
M  END
