
     RDKit          3D

 16 17  0  0  0  0  0  0  0  0999 V2000
   -0.7081    2.3298    0.9013 O   0  0  0  0  0  0  0  0  0  0  0  0
   -0.4162    1.3261    0.2708 C   0  0  0  0  0  0  0  0  0  0  0  0
   -1.4162    0.2307    0.2689 C   0  0  0  0  0  0  0  0  0  0  0  0
   -0.7960   -1.0264   -0.2757 C   0  0  0  0  0  0  0  0  0  0  0  0
    0.6010   -1.1147    0.3311 C   0  0  0  0  0  0  0  0  0  0  0  0
    1.4911   -0.0655   -0.3099 C   0  0  0  0  0  0  0  0  0  0  0  0
    1.0369    0.4079   -1.5134 O   0  0  0  0  0  0  0  0  0  0  0  0
    0.8687    1.2565   -0.4312 C   0  0  0  0  0  0  0  0  0  0  0  0
   -2.3537    0.5177   -0.2319 H   0  0  0  0  0  0  0  0  0  0  0  0
   -1.7006   -0.0053    1.3327 H   0  0  0  0  0  0  0  0  0  0  0  0
   -1.3764   -1.9327   -0.0229 H   0  0  0  0  0  0  0  0  0  0  0  0
   -0.7038   -0.9194   -1.3721 H   0  0  0  0  0  0  0  0  0  0  0  0
    0.4624   -0.9309    1.4216 H   0  0  0  0  0  0  0  0  0  0  0  0
    0.9730   -2.1242    0.1467 H   0  0  0  0  0  0  0  0  0  0  0  0
    2.5562   -0.1046   -0.0551 H   0  0  0  0  0  0  0  0  0  0  0  0
    1.4818    2.1550   -0.4608 H   0  0  0  0  0  0  0  0  0  0  0  0
  1  2  2  0
  2  3  1  0
  3  4  1  0
  4  5  1  0
  5  6  1  0
  6  7  1  0
  7  8  1  0
  8  2  1  0
  8  6  1  0
  3  9  1  0
  3 10  1  0
  4 11  1  0
  4 12  1  0
  5 13  1  0
  5 14  1  0
  6 15  1  0
  8 16  1  0
M  END
