
     RDKit          3D

 19 20  0  0  0  0  0  0  0  0999 V2000
   -0.7133   -1.8724   -1.1734 O   0  0  0  0  0  0  0  0  0  0  0  0
   -0.8559   -0.9519   -0.4257 C   0  0  0  0  0  0  0  0  0  0  0  0
   -2.1539   -0.4407    0.1324 C   0  0  0  0  0  0  0  0  0  0  0  0
   -1.7350    0.7599    0.8992 C   0  0  0  0  0  0  0  0  0  0  0  0
   -0.3762    0.8158    0.9723 O   0  0  0  0  0  0  0  0  0  0  0  0
    0.1855   -0.0937    0.1338 C   0  0  0  0  0  0  0  0  0  0  0  0
    1.1205    0.5643   -0.8674 C   0  0  0  0  0  0  0  0  0  0  0  0
    2.1911    0.4468    0.2276 C   0  0  0  0  0  0  0  0  0  0  0  0
    1.3909   -0.7688    0.7226 C   0  0  0  0  0  0  0  0  0  0  0  0
   -2.5931   -1.1928    0.8224 H   0  0  0  0  0  0  0  0  0  0  0  0
   -2.8867   -0.2179   -0.6665 H   0  0  0  0  0  0  0  0  0  0  0  0
   -2.0937    1.7274    0.4435 H   0  0  0  0  0  0  0  0  0  0  0  0
   -2.1322    0.7555    1.9557 H   0  0  0  0  0  0  0  0  0  0  0  0
    0.8595    1.6092   -1.1148 H   0  0  0  0  0  0  0  0  0  0  0  0
    1.3573   -0.0262   -1.7547 H   0  0  0  0  0  0  0  0  0  0  0  0
    3.1925    0.2221   -0.1293 H   0  0  0  0  0  0  0  0  0  0  0  0
    2.0830    1.2467    0.9875 H   0  0  0  0  0  0  0  0  0  0  0  0
    1.4062   -0.9153    1.8044 H   0  0  0  0  0  0  0  0  0  0  0  0
    1.7537   -1.6680    0.2077 H   0  0  0  0  0  0  0  0  0  0  0  0
  1  2  2  0
  2  3  1  0
  3  4  1  0
  4  5  1  0
  5  6  1  0
  6  7  1  0
  7  8  1  0
  8  9  1  0
  6  2  1  0
  9  6  1  0
  3 10  1  0
  3 11  1  0
  4 12  1  0
  4 13  1  0
  7 14  1  0
  7 15  1  0
  8 16  1  0
  8 17  1  0
  9 18  1  0
  9 19  1  0
M  END
