
     RDKit          3D

 15 16  0  0  0  0  0  0  0  0999 V2000
    2.4474    1.6692   -0.2349 O   0  0  0  0  0  0  0  0  0  0  0  0
    1.3558    1.0758   -0.2293 C   0  0  0  0  0  0  0  0  0  0  0  0
    0.1091    1.6721   -0.3872 O   0  0  0  0  0  0  0  0  0  0  0  0
   -0.7352    0.6246   -0.7662 C   0  0  0  0  0  0  0  0  0  0  0  0
   -1.5767   -0.2687   -0.0956 C   0  0  0  0  0  0  0  0  0  0  0  0
   -2.6626    0.2823    0.6260 O   0  0  0  0  0  0  0  0  0  0  0  0
   -0.2930   -0.2747    0.4644 C   0  0  0  0  0  0  0  0  0  0  0  0
    1.1029   -0.3832   -0.0572 C   0  0  0  0  0  0  0  0  0  0  0  0
    1.9912   -0.9952    0.7792 O   0  0  0  0  0  0  0  0  0  0  0  0
   -0.3754    0.2659   -1.7817 H   0  0  0  0  0  0  0  0  0  0  0  0
   -1.9352   -1.2037   -0.6098 H   0  0  0  0  0  0  0  0  0  0  0  0
   -2.7023   -0.0471    1.5434 H   0  0  0  0  0  0  0  0  0  0  0  0
   -0.2155    0.2841    1.4528 H   0  0  0  0  0  0  0  0  0  0  0  0
    1.0627   -0.9215   -1.0245 H   0  0  0  0  0  0  0  0  0  0  0  0
    2.4269   -1.7800    0.3207 H   0  0  0  0  0  0  0  0  0  0  0  0
  1  2  2  0
  2  3  1  0
  3  4  1  0
  4  5  1  0
  5  6  1  0
  5  7  1  0
  7  8  1  0
  8  9  1  0
  8  2  1  0
  7  4  1  0
  4 10  1  0
  5 11  1  0
  6 12  1  0
  7 13  1  0
  8 14  1  0
  9 15  1  0
M  END
