
     RDKit          3D

 16 17  0  0  0  0  0  0  0  0999 V2000
   -0.1641    0.7868   -2.3046 O   0  0  0  0  0  0  0  0  0  0  0  0
   -0.4842    0.4554   -1.1737 C   0  0  0  0  0  0  0  0  0  0  0  0
   -1.7698    0.4422   -0.3821 C   0  0  0  0  0  0  0  0  0  0  0  0
   -1.0271   -0.2408    0.7306 C   0  0  0  0  0  0  0  0  0  0  0  0
   -0.1857   -1.4497    0.4333 C   0  0  0  0  0  0  0  0  0  0  0  0
    0.2147   -0.0977   -0.0093 C   0  0  0  0  0  0  0  0  0  0  0  0
    1.4280    0.5990    0.4534 C   0  0  0  0  0  0  0  0  0  0  0  0
    2.3672    0.5981   -0.6017 O   0  0  0  0  0  0  0  0  0  0  0  0
   -2.5800   -0.1172   -0.8504 H   0  0  0  0  0  0  0  0  0  0  0  0
   -2.0467    1.4691   -0.1336 H   0  0  0  0  0  0  0  0  0  0  0  0
   -1.2133    0.0812    1.7526 H   0  0  0  0  0  0  0  0  0  0  0  0
    0.2669   -1.9266    1.3205 H   0  0  0  0  0  0  0  0  0  0  0  0
   -0.4931   -2.1451   -0.3938 H   0  0  0  0  0  0  0  0  0  0  0  0
    1.9021    0.2179    1.3508 H   0  0  0  0  0  0  0  0  0  0  0  0
    1.1939    1.6847    0.6213 H   0  0  0  0  0  0  0  0  0  0  0  0
    2.5913   -0.3574   -0.8134 H   0  0  0  0  0  0  0  0  0  0  0  0
  1  2  2  0
  2  3  1  0
  3  4  1  0
  4  5  1  0
  5  6  1  0
  6  7  1  0
  7  8  1  0
  6  2  1  0
  6  4  1  0
  3  9  1  0
  3 10  1  0
  4 11  1  0
  5 12  1  0
  5 13  1  0
  7 14  1  0
  7 15  1  0
  8 16  1  0
M  END
