
     RDKit          3D

 15 15  0  0  0  0  0  0  0  0999 V2000
   -1.8056    2.1585    0.1451 O   0  0  0  0  0  0  0  0  0  0  0  0
   -1.1143    1.1424   -0.0541 C   0  0  0  0  0  0  0  0  0  0  0  0
   -1.6738   -0.2520   -0.0114 C   0  0  0  0  0  0  0  0  0  0  0  0
   -0.8870   -1.1097    0.6829 O   0  0  0  0  0  0  0  0  0  0  0  0
    0.4203   -1.1874    0.3765 C   0  0  0  0  0  0  0  0  0  0  0  0
    1.0324   -0.1029   -0.4094 C   0  0  0  0  0  0  0  0  0  0  0  0
    2.3372    0.1257    0.0288 O   0  0  0  0  0  0  0  0  0  0  0  0
    0.3221    1.1932   -0.3525 C   0  0  0  0  0  0  0  0  0  0  0  0
    0.8802    2.2941   -0.5426 O   0  0  0  0  0  0  0  0  0  0  0  0
   -1.9529   -0.5932   -1.0403 H   0  0  0  0  0  0  0  0  0  0  0  0
   -2.6562   -0.1667    0.5292 H   0  0  0  0  0  0  0  0  0  0  0  0
    0.6013   -2.1593   -0.1721 H   0  0  0  0  0  0  0  0  0  0  0  0
    0.9995   -1.3205    1.3373 H   0  0  0  0  0  0  0  0  0  0  0  0
    1.1180   -0.3710   -1.5024 H   0  0  0  0  0  0  0  0  0  0  0  0
    2.3786    0.3490    0.9850 H   0  0  0  0  0  0  0  0  0  0  0  0
  1  2  2  0
  2  3  1  0
  3  4  1  0
  4  5  1  0
  5  6  1  0
  6  7  1  0
  6  8  1  0
  8  9  2  0
  8  2  1  0
  3 10  1  0
  3 11  1  0
  5 12  1  0
  5 13  1  0
  6 14  1  0
  7 15  1  0
M  END
