
     RDKit          3D

 17 19  0  0  0  0  0  0  0  0999 V2000
    2.2380    1.8041   -0.7225 O   0  0  0  0  0  0  0  0  0  0  0  0
    1.4231    1.0292   -0.2567 C   0  0  0  0  0  0  0  0  0  0  0  0
    0.3156    1.0652    0.7448 C   0  0  0  0  0  0  0  0  0  0  0  0
   -0.9990    1.1387   -0.0056 C   0  0  0  0  0  0  0  0  0  0  0  0
   -1.4276   -0.2748   -0.2356 C   0  0  0  0  0  0  0  0  0  0  0  0
   -0.1096   -1.0564   -0.1382 C   0  0  0  0  0  0  0  0  0  0  0  0
   -0.1686   -2.4207   -0.2641 O   0  0  0  0  0  0  0  0  0  0  0  0
    1.1421   -0.3910   -0.4860 C   0  0  0  0  0  0  0  0  0  0  0  0
    0.5616   -0.3933    0.9595 C   0  0  0  0  0  0  0  0  0  0  0  0
    0.4398    1.7413    1.5815 H   0  0  0  0  0  0  0  0  0  0  0  0
   -0.8511    1.6041   -1.0242 H   0  0  0  0  0  0  0  0  0  0  0  0
   -1.7467    1.7511    0.5435 H   0  0  0  0  0  0  0  0  0  0  0  0
   -1.9497   -0.4571   -1.1729 H   0  0  0  0  0  0  0  0  0  0  0  0
   -2.0206   -0.5911    0.6645 H   0  0  0  0  0  0  0  0  0  0  0  0
   -0.0876   -2.7263   -1.2235 H   0  0  0  0  0  0  0  0  0  0  0  0
    2.0216   -1.0287   -0.6633 H   0  0  0  0  0  0  0  0  0  0  0  0
    1.2188   -0.7945    1.6987 H   0  0  0  0  0  0  0  0  0  0  0  0
  1  2  2  0
  2  3  1  0
  3  4  1  0
  4  5  1  0
  5  6  1  0
  6  7  1  0
  6  8  1  0
  8  9  1  0
  8  2  1  0
  9  3  1  0
  9  6  1  0
  3 10  1  0
  4 11  1  0
  4 12  1  0
  5 13  1  0
  5 14  1  0
  7 15  1  0
  8 16  1  0
  9 17  1  0
M  END
