
     RDKit          3D

 14 15  0  0  0  0  0  0  0  0999 V2000
    0.0481   -1.1343    2.0691 O   0  0  0  0  0  0  0  0  0  0  0  0
   -0.1276   -0.5490    1.0362 C   0  0  0  0  0  0  0  0  0  0  0  0
   -1.3823   -0.7551    0.2174 C   0  0  0  0  0  0  0  0  0  0  0  0
   -1.4143    0.4394   -0.6678 C   0  0  0  0  0  0  0  0  0  0  0  0
   -0.2728    1.0992   -0.6334 C   0  0  0  0  0  0  0  0  0  0  0  0
    0.6475    0.4287    0.2709 C   0  0  0  0  0  0  0  0  0  0  0  0
    2.0006   -0.0369   -0.1921 C   0  0  0  0  0  0  0  0  0  0  0  0
    1.8074    0.9826    0.7214 O   0  0  0  0  0  0  0  0  0  0  0  0
   -1.3501   -1.6939   -0.3306 H   0  0  0  0  0  0  0  0  0  0  0  0
   -2.2246   -0.6652    0.9349 H   0  0  0  0  0  0  0  0  0  0  0  0
   -2.2919    0.7034   -1.2564 H   0  0  0  0  0  0  0  0  0  0  0  0
   -0.0538    2.0023   -1.1927 H   0  0  0  0  0  0  0  0  0  0  0  0
    2.2139    0.1653   -1.2452 H   0  0  0  0  0  0  0  0  0  0  0  0
    2.3998   -0.9864    0.2683 H   0  0  0  0  0  0  0  0  0  0  0  0
  1  2  2  0
  2  3  1  0
  3  4  1  0
  4  5  2  0
  5  6  1  0
  6  7  1  0
  7  8  1  0
  6  2  1  0
  8  6  1  0
  3  9  1  0
  3 10  1  0
  4 11  1  0
  5 12  1  0
  7 13  1  0
  7 14  1  0
M  END
