
     RDKit          3D

 15 15  0  0  0  0  0  0  0  0999 V2000
   -1.4608   -1.0680    1.3436 O   0  0  0  0  0  0  0  0  0  0  0  0
   -1.1001   -0.2023    0.6010 C   0  0  0  0  0  0  0  0  0  0  0  0
   -1.9162    0.7432   -0.1776 C   0  0  0  0  0  0  0  0  0  0  0  0
   -1.1076    1.0234   -1.3126 O   0  0  0  0  0  0  0  0  0  0  0  0
    0.1850    0.5679   -1.1189 C   0  0  0  0  0  0  0  0  0  0  0  0
    1.0679    0.5537   -2.0075 O   0  0  0  0  0  0  0  0  0  0  0  0
    0.3048    0.1213    0.2895 C   0  0  0  0  0  0  0  0  0  0  0  0
    1.2205   -1.0726    0.3763 C   0  0  0  0  0  0  0  0  0  0  0  0
    2.5059   -0.6379    0.0627 O   0  0  0  0  0  0  0  0  0  0  0  0
   -2.8920    0.3244   -0.5075 H   0  0  0  0  0  0  0  0  0  0  0  0
   -2.0663    1.6834    0.4264 H   0  0  0  0  0  0  0  0  0  0  0  0
    0.6081    0.9376    0.9710 H   0  0  0  0  0  0  0  0  0  0  0  0
    0.8464   -1.8599   -0.2835 H   0  0  0  0  0  0  0  0  0  0  0  0
    1.2403   -1.4525    1.3989 H   0  0  0  0  0  0  0  0  0  0  0  0
    2.5641    0.3383   -0.0619 H   0  0  0  0  0  0  0  0  0  0  0  0
  1  2  2  0
  2  3  1  0
  3  4  1  0
  4  5  1  0
  5  6  2  0
  5  7  1  0
  7  8  1  0
  8  9  1  0
  7  2  1  0
  3 10  1  0
  3 11  1  0
  7 12  1  0
  8 13  1  0
  8 14  1  0
  9 15  1  0
M  END
