
     RDKit          3D

 17 18  0  0  0  0  0  0  0  0999 V2000
   -0.7824   -2.2941    0.2140 O   0  0  0  0  0  0  0  0  0  0  0  0
   -0.6936   -1.1194   -0.0473 C   0  0  0  0  0  0  0  0  0  0  0  0
   -0.0889   -0.3417   -1.1416 C   0  0  0  0  0  0  0  0  0  0  0  0
   -1.3499    0.4736   -1.1225 C   0  0  0  0  0  0  0  0  0  0  0  0
   -1.0032    0.2511    0.3447 C   0  0  0  0  0  0  0  0  0  0  0  0
   -1.6331    0.6917    1.3287 O   0  0  0  0  0  0  0  0  0  0  0  0
    0.4096    0.5851   -0.0749 C   0  0  0  0  0  0  0  0  0  0  0  0
    1.4314   -0.0587    0.8366 C   0  0  0  0  0  0  0  0  0  0  0  0
    2.5514   -0.4905    0.1504 O   0  0  0  0  0  0  0  0  0  0  0  0
    0.4032   -0.6817   -1.9419 H   0  0  0  0  0  0  0  0  0  0  0  0
   -2.2111   -0.1244   -1.4222 H   0  0  0  0  0  0  0  0  0  0  0  0
   -1.2882    1.5051   -1.4637 H   0  0  0  0  0  0  0  0  0  0  0  0
   -1.9922    0.1269    2.0670 H   0  0  0  0  0  0  0  0  0  0  0  0
    0.6066    1.6220   -0.3537 H   0  0  0  0  0  0  0  0  0  0  0  0
    1.6687    0.6073    1.6905 H   0  0  0  0  0  0  0  0  0  0  0  0
    0.9713   -0.9738    1.2976 H   0  0  0  0  0  0  0  0  0  0  0  0
    3.0003    0.2214   -0.3616 H   0  0  0  0  0  0  0  0  0  0  0  0
  1  2  2  0
  2  3  1  0
  3  4  1  0
  4  5  1  0
  5  6  1  0
  5  7  1  0
  7  8  1  0
  8  9  1  0
  5  2  1  0
  7  3  1  0
  3 10  1  0
  4 11  1  0
  4 12  1  0
  6 13  1  0
  7 14  1  0
  8 15  1  0
  8 16  1  0
  9 17  1  0
M  END
