
     RDKit          3D

 15 18  0  0  0  0  0  0  0  0999 V2000
   -2.3632    0.1970    1.5435 O   0  0  0  0  0  0  0  0  0  0  0  0
   -1.3912    0.1554    0.8385 C   0  0  0  0  0  0  0  0  0  0  0  0
   -1.2675   -0.5746   -0.4502 C   0  0  0  0  0  0  0  0  0  0  0  0
   -0.3686    0.2701   -1.2428 C   0  0  0  0  0  0  0  0  0  0  0  0
    0.1598   -0.9288   -0.5797 C   0  0  0  0  0  0  0  0  0  0  0  0
    0.8690   -0.1365    0.4389 C   0  0  0  0  0  0  0  0  0  0  0  0
    2.1745   -0.2548    0.7560 O   0  0  0  0  0  0  0  0  0  0  0  0
   -0.0828    0.8015    1.0514 C   0  0  0  0  0  0  0  0  0  0  0  0
    0.3770    1.1361   -0.2938 C   0  0  0  0  0  0  0  0  0  0  0  0
   -2.0659   -1.1853   -0.8416 H   0  0  0  0  0  0  0  0  0  0  0  0
   -0.4210    0.4336   -2.3073 H   0  0  0  0  0  0  0  0  0  0  0  0
    0.5398   -1.8045   -1.0718 H   0  0  0  0  0  0  0  0  0  0  0  0
    2.4615   -1.1950    0.7522 H   0  0  0  0  0  0  0  0  0  0  0  0
    0.1904    1.2965    1.9693 H   0  0  0  0  0  0  0  0  0  0  0  0
    1.1882    1.7893   -0.5627 H   0  0  0  0  0  0  0  0  0  0  0  0
  1  2  2  0
  2  3  1  0
  3  4  1  0
  4  5  1  0
  5  6  1  0
  6  7  1  0
  6  8  1  0
  8  9  1  0
  8  2  1  0
  5  3  1  0
  9  6  1  0
  9  4  1  0
  3 10  1  0
  4 11  1  0
  5 12  1  0
  7 13  1  0
  8 14  1  0
  9 15  1  0
M  END
