
     RDKit          3D

 19 19  0  0  0  0  0  0  0  0999 V2000
   -0.1166   -2.3762   -0.5536 O   0  0  0  0  0  0  0  0  0  0  0  0
   -0.0105   -1.3750    0.1104 C   0  0  0  0  0  0  0  0  0  0  0  0
    1.3303   -1.1232    0.6577 C   0  0  0  0  0  0  0  0  0  0  0  0
    1.9090    0.0431   -0.0253 C   0  0  0  0  0  0  0  0  0  0  0  0
    1.2897    1.1874   -0.2861 C   0  0  0  0  0  0  0  0  0  0  0  0
   -0.1225    1.5689    0.0428 C   0  0  0  0  0  0  0  0  0  0  0  0
   -1.1079    0.6303   -0.6432 C   0  0  0  0  0  0  0  0  0  0  0  0
   -1.2395   -0.5763    0.2599 C   0  0  0  0  0  0  0  0  0  0  0  0
   -2.3468   -1.3530   -0.0504 O   0  0  0  0  0  0  0  0  0  0  0  0
    1.9822   -2.0305    0.5803 H   0  0  0  0  0  0  0  0  0  0  0  0
    1.2915   -0.9071    1.7622 H   0  0  0  0  0  0  0  0  0  0  0  0
    2.9521   -0.0603   -0.3422 H   0  0  0  0  0  0  0  0  0  0  0  0
    1.8862    1.9304   -0.7997 H   0  0  0  0  0  0  0  0  0  0  0  0
   -0.2054    1.4408    1.1616 H   0  0  0  0  0  0  0  0  0  0  0  0
   -0.3426    2.6032   -0.2103 H   0  0  0  0  0  0  0  0  0  0  0  0
   -0.6289    0.3072   -1.6006 H   0  0  0  0  0  0  0  0  0  0  0  0
   -2.0561    1.1078   -0.8866 H   0  0  0  0  0  0  0  0  0  0  0  0
   -1.3924   -0.1897    1.2859 H   0  0  0  0  0  0  0  0  0  0  0  0
   -3.0719   -0.8280   -0.4627 H   0  0  0  0  0  0  0  0  0  0  0  0
  1  2  2  0
  2  3  1  0
  3  4  1  0
  4  5  2  0
  5  6  1  0
  6  7  1  0
  7  8  1  0
  8  9  1  0
  8  2  1  0
  3 10  1  0
  3 11  1  0
  4 12  1  0
  5 13  1  0
  6 14  1  0
  6 15  1  0
  7 16  1  0
  7 17  1  0
  8 18  1  0
  9 19  1  0
M  END
