
     RDKit          3D

 15 17  0  0  0  0  0  0  0  0999 V2000
   -2.2042    0.9372    1.1460 O   0  0  0  0  0  0  0  0  0  0  0  0
   -1.2774    0.5479    0.4985 C   0  0  0  0  0  0  0  0  0  0  0  0
   -0.0097    1.2467    0.2018 C   0  0  0  0  0  0  0  0  0  0  0  0
    1.1143    0.3802    0.7268 C   0  0  0  0  0  0  0  0  0  0  0  0
    0.8297   -0.9211   -0.0401 C   0  0  0  0  0  0  0  0  0  0  0  0
   -0.2522   -1.6433    0.4203 O   0  0  0  0  0  0  0  0  0  0  0  0
   -1.1412   -0.7564   -0.1934 C   0  0  0  0  0  0  0  0  0  0  0  0
   -0.0156   -0.4253   -1.1571 C   0  0  0  0  0  0  0  0  0  0  0  0
    0.0964    0.9730   -1.1795 O   0  0  0  0  0  0  0  0  0  0  0  0
    0.0413    2.2825    0.4559 H   0  0  0  0  0  0  0  0  0  0  0  0
    2.0662    0.7654    0.3337 H   0  0  0  0  0  0  0  0  0  0  0  0
    1.0780    0.2323    1.8065 H   0  0  0  0  0  0  0  0  0  0  0  0
    1.7236   -1.4984   -0.2898 H   0  0  0  0  0  0  0  0  0  0  0  0
   -2.0401   -1.1856   -0.6258 H   0  0  0  0  0  0  0  0  0  0  0  0
   -0.0092   -0.9352   -2.1039 H   0  0  0  0  0  0  0  0  0  0  0  0
  1  2  2  0
  2  3  1  0
  3  4  1  0
  4  5  1  0
  5  6  1  0
  6  7  1  0
  7  8  1  0
  8  9  1  0
  7  2  1  0
  9  3  1  0
  8  5  1  0
  3 10  1  0
  4 11  1  0
  4 12  1  0
  5 13  1  0
  7 14  1  0
  8 15  1  0
M  END
