
     RDKit          3D

 19 21  0  0  0  0  0  0  0  0999 V2000
   -2.4139    0.8447   -1.2786 O   0  0  0  0  0  0  0  0  0  0  0  0
   -1.4273    0.4732   -0.6828 C   0  0  0  0  0  0  0  0  0  0  0  0
   -1.3024   -0.9718   -0.3723 C   0  0  0  0  0  0  0  0  0  0  0  0
    0.1189   -1.1720    0.1077 C   0  0  0  0  0  0  0  0  0  0  0  0
    1.1174   -0.4994   -0.8128 C   0  0  0  0  0  0  0  0  0  0  0  0
    0.9981    0.9520   -0.4760 C   0  0  0  0  0  0  0  0  0  0  0  0
    0.4047    1.0658    0.8931 C   0  0  0  0  0  0  0  0  0  0  0  0
    0.2829   -0.3487    1.3671 C   0  0  0  0  0  0  0  0  0  0  0  0
   -0.3957    1.4209   -0.2844 C   0  0  0  0  0  0  0  0  0  0  0  0
   -1.9621   -1.1746    0.5163 H   0  0  0  0  0  0  0  0  0  0  0  0
   -1.5918   -1.6332   -1.1874 H   0  0  0  0  0  0  0  0  0  0  0  0
    0.3303   -2.2332    0.2443 H   0  0  0  0  0  0  0  0  0  0  0  0
    0.9672   -0.7382   -1.8670 H   0  0  0  0  0  0  0  0  0  0  0  0
    2.1329   -0.8439   -0.4687 H   0  0  0  0  0  0  0  0  0  0  0  0
    1.8029    1.6631   -0.7173 H   0  0  0  0  0  0  0  0  0  0  0  0
    0.7221    1.8453    1.5961 H   0  0  0  0  0  0  0  0  0  0  0  0
    1.2962   -0.6287    1.7787 H   0  0  0  0  0  0  0  0  0  0  0  0
   -0.5133   -0.5228    2.0966 H   0  0  0  0  0  0  0  0  0  0  0  0
   -0.5672    2.5015   -0.4525 H   0  0  0  0  0  0  0  0  0  0  0  0
  1  2  2  0
  2  3  1  0
  3  4  1  0
  4  5  1  0
  5  6  1  0
  6  7  1  0
  7  8  1  0
  7  9  1  0
  9  2  1  0
  8  4  1  0
  9  6  1  0
  3 10  1  0
  3 11  1  0
  4 12  1  0
  5 13  1  0
  5 14  1  0
  6 15  1  0
  7 16  1  0
  8 17  1  0
  8 18  1  0
  9 19  1  0
M  END
