
     RDKit          3D

 15 16  0  0  0  0  0  0  0  0999 V2000
    2.4151    2.0430    0.0352 O   0  0  0  0  0  0  0  0  0  0  0  0
    1.5127    1.1464    0.0016 C   0  0  0  0  0  0  0  0  0  0  0  0
    1.9181   -0.2434   -0.2141 C   0  0  0  0  0  0  0  0  0  0  0  0
    0.9526   -1.1460   -0.2426 C   0  0  0  0  0  0  0  0  0  0  0  0
   -0.4605   -0.8297   -0.0736 C   0  0  0  0  0  0  0  0  0  0  0  0
   -1.0935   -0.2219   -1.1666 O   0  0  0  0  0  0  0  0  0  0  0  0
   -1.9590    0.3463   -0.1991 C   0  0  0  0  0  0  0  0  0  0  0  0
   -0.6927    0.4929    0.6565 C   0  0  0  0  0  0  0  0  0  0  0  0
    0.1665    1.4716    0.1657 O   0  0  0  0  0  0  0  0  0  0  0  0
    2.9690   -0.5014   -0.3427 H   0  0  0  0  0  0  0  0  0  0  0  0
    1.2495   -2.1706   -0.4015 H   0  0  0  0  0  0  0  0  0  0  0  0
   -1.0932   -1.6207    0.3676 H   0  0  0  0  0  0  0  0  0  0  0  0
   -2.6053   -0.4658    0.1803 H   0  0  0  0  0  0  0  0  0  0  0  0
   -2.4292    1.2795   -0.4932 H   0  0  0  0  0  0  0  0  0  0  0  0
   -0.8501    0.4200    1.7265 H   0  0  0  0  0  0  0  0  0  0  0  0
  1  2  2  0
  2  3  1  0
  3  4  2  0
  4  5  1  0
  5  6  1  0
  6  7  1  0
  7  8  1  0
  8  9  1  0
  9  2  1  0
  8  5  1  0
  3 10  1  0
  4 11  1  0
  5 12  1  0
  7 13  1  0
  7 14  1  0
  8 15  1  0
M  END
