
     RDKit          3D

 14 14  0  0  0  0  0  0  0  0999 V2000
    1.9674    0.6587    1.7883 O   0  0  0  0  0  0  0  0  0  0  0  0
    1.0511    0.5196    0.9374 C   0  0  0  0  0  0  0  0  0  0  0  0
    0.0745    1.4680    0.7214 O   0  0  0  0  0  0  0  0  0  0  0  0
   -0.8853    1.0265   -0.2039 C   0  0  0  0  0  0  0  0  0  0  0  0
   -0.6197   -0.4683   -0.3397 C   0  0  0  0  0  0  0  0  0  0  0  0
   -1.3622   -1.0884    0.6783 O   0  0  0  0  0  0  0  0  0  0  0  0
    0.8369   -0.6349    0.0317 C   0  0  0  0  0  0  0  0  0  0  0  0
    1.6828   -0.6627   -1.0441 O   0  0  0  0  0  0  0  0  0  0  0  0
   -1.8895    1.2044    0.2745 H   0  0  0  0  0  0  0  0  0  0  0  0
   -0.7954    1.5510   -1.1750 H   0  0  0  0  0  0  0  0  0  0  0  0
   -0.8682   -0.8443   -1.3348 H   0  0  0  0  0  0  0  0  0  0  0  0
   -2.2535   -1.3356    0.3566 H   0  0  0  0  0  0  0  0  0  0  0  0
    0.9638   -1.5960    0.5856 H   0  0  0  0  0  0  0  0  0  0  0  0
    2.0971    0.2019   -1.2763 H   0  0  0  0  0  0  0  0  0  0  0  0
  1  2  2  0
  2  3  1  0
  3  4  1  0
  4  5  1  0
  5  6  1  0
  5  7  1  0
  7  8  1  0
  7  2  1  0
  4  9  1  0
  4 10  1  0
  5 11  1  0
  6 12  1  0
  7 13  1  0
  8 14  1  0
M  END
