
     RDKit          3D

 15 16  0  0  0  0  0  0  0  0999 V2000
    2.4885    0.9306    1.0451 O   0  0  0  0  0  0  0  0  0  0  0  0
    1.3904    0.5896    0.5714 C   0  0  0  0  0  0  0  0  0  0  0  0
    0.2958    1.4190    0.0019 C   0  0  0  0  0  0  0  0  0  0  0  0
    0.2128    2.6521   -0.1290 O   0  0  0  0  0  0  0  0  0  0  0  0
   -0.6825    0.3650   -0.3726 C   0  0  0  0  0  0  0  0  0  0  0  0
   -1.8212    0.6557   -0.9545 O   0  0  0  0  0  0  0  0  0  0  0  0
    0.2576   -0.6676   -1.0076 C   0  0  0  0  0  0  0  0  0  0  0  0
    0.7846   -0.7789    0.4081 C   0  0  0  0  0  0  0  0  0  0  0  0
   -0.6352   -0.5181    0.8609 C   0  0  0  0  0  0  0  0  0  0  0  0
   -2.5265    0.0013   -0.7528 H   0  0  0  0  0  0  0  0  0  0  0  0
    1.0581   -0.2005   -1.6399 H   0  0  0  0  0  0  0  0  0  0  0  0
   -0.2241   -1.5479   -1.4174 H   0  0  0  0  0  0  0  0  0  0  0  0
    1.3100   -1.6221    0.7253 H   0  0  0  0  0  0  0  0  0  0  0  0
   -1.3109   -1.3697    0.8663 H   0  0  0  0  0  0  0  0  0  0  0  0
   -0.5974    0.0914    1.7949 H   0  0  0  0  0  0  0  0  0  0  0  0
  1  2  2  0
  2  3  1  0
  3  4  2  0
  3  5  1  0
  5  6  1  0
  5  7  1  0
  7  8  1  0
  8  9  1  0
  8  2  1  0
  9  5  1  0
  6 10  1  0
  7 11  1  0
  7 12  1  0
  8 13  1  0
  9 14  1  0
  9 15  1  0
M  END
