
     RDKit          3D

 15 17  0  0  0  0  0  0  0  0999 V2000
   -2.5028    1.2486    0.4276 O   0  0  0  0  0  0  0  0  0  0  0  0
   -1.8650    0.1927    0.2039 C   0  0  0  0  0  0  0  0  0  0  0  0
   -1.8287   -0.6817   -0.8695 O   0  0  0  0  0  0  0  0  0  0  0  0
   -0.4585   -0.9286   -0.5295 C   0  0  0  0  0  0  0  0  0  0  0  0
   -0.8760   -0.6501    0.8921 C   0  0  0  0  0  0  0  0  0  0  0  0
    0.1642    0.0459    1.4815 O   0  0  0  0  0  0  0  0  0  0  0  0
    0.7106    0.8285    0.4962 C   0  0  0  0  0  0  0  0  0  0  0  0
    1.8133    0.2059   -0.2983 C   0  0  0  0  0  0  0  0  0  0  0  0
    0.4504    0.2252   -0.8257 C   0  0  0  0  0  0  0  0  0  0  0  0
   -0.1000   -1.9312   -0.7542 H   0  0  0  0  0  0  0  0  0  0  0  0
   -1.2819   -1.4931    1.4543 H   0  0  0  0  0  0  0  0  0  0  0  0
    0.7300    1.9106    0.6708 H   0  0  0  0  0  0  0  0  0  0  0  0
    2.5777    0.9164   -0.7146 H   0  0  0  0  0  0  0  0  0  0  0  0
    2.2993   -0.7328    0.0629 H   0  0  0  0  0  0  0  0  0  0  0  0
    0.1673    0.8437   -1.6975 H   0  0  0  0  0  0  0  0  0  0  0  0
  1  2  2  0
  2  3  1  0
  3  4  1  0
  4  5  1  0
  5  6  1  0
  6  7  1  0
  7  8  1  0
  8  9  1  0
  5  2  1  0
  9  7  1  0
  9  4  1  0
  4 10  1  0
  5 11  1  0
  7 12  1  0
  8 13  1  0
  8 14  1  0
  9 15  1  0
M  END
