
     RDKit          3D

 17 18  0  0  0  0  0  0  0  0999 V2000
    0.4747    2.4439    0.1545 O   0  0  0  0  0  0  0  0  0  0  0  0
    0.3057    1.2380    0.1806 C   0  0  0  0  0  0  0  0  0  0  0  0
   -0.9658    0.5746    0.4737 C   0  0  0  0  0  0  0  0  0  0  0  0
   -1.4650   -0.0423   -0.8363 C   0  0  0  0  0  0  0  0  0  0  0  0
   -0.4332   -0.9049   -1.1971 O   0  0  0  0  0  0  0  0  0  0  0  0
    0.4101   -1.0695   -0.1380 C   0  0  0  0  0  0  0  0  0  0  0  0
   -0.4683   -0.7444    1.0863 C   0  0  0  0  0  0  0  0  0  0  0  0
    1.3233    0.1499   -0.0726 C   0  0  0  0  0  0  0  0  0  0  0  0
    1.9804    0.3137   -1.2559 O   0  0  0  0  0  0  0  0  0  0  0  0
   -1.6955    1.0857    1.0447 H   0  0  0  0  0  0  0  0  0  0  0  0
   -1.6893    0.7082   -1.5917 H   0  0  0  0  0  0  0  0  0  0  0  0
   -2.3400   -0.7066   -0.5898 H   0  0  0  0  0  0  0  0  0  0  0  0
    0.9207   -2.0092   -0.0506 H   0  0  0  0  0  0  0  0  0  0  0  0
    0.2054   -0.5928    1.9174 H   0  0  0  0  0  0  0  0  0  0  0  0
   -1.2701   -1.4637    1.2167 H   0  0  0  0  0  0  0  0  0  0  0  0
    1.9696    0.0765    0.8195 H   0  0  0  0  0  0  0  0  0  0  0  0
    2.7374    0.9429   -1.1615 H   0  0  0  0  0  0  0  0  0  0  0  0
  1  2  2  0
  2  3  1  0
  3  4  1  0
  4  5  1  0
  5  6  1  0
  6  7  1  0
  6  8  1  0
  8  9  1  0
  8  2  1  0
  7  3  1  0
  3 10  1  0
  4 11  1  0
  4 12  1  0
  6 13  1  0
  7 14  1  0
  7 15  1  0
  8 16  1  0
  9 17  1  0
M  END
