
     RDKit          3D

 13 14  0  0  0  0  0  0  0  0999 V2000
   -2.2015   -1.9650   -0.1749 O   0  0  0  0  0  0  0  0  0  0  0  0
   -1.4689   -0.9352   -0.1167 C   0  0  0  0  0  0  0  0  0  0  0  0
   -1.9769    0.4314   -0.1570 C   0  0  0  0  0  0  0  0  0  0  0  0
   -0.9288    1.2545   -0.0738 C   0  0  0  0  0  0  0  0  0  0  0  0
    0.2953    0.4679    0.0235 C   0  0  0  0  0  0  0  0  0  0  0  0
    1.6765    0.5079    0.1332 C   0  0  0  0  0  0  0  0  0  0  0  0
    2.1354   -0.7927    0.1696 C   0  0  0  0  0  0  0  0  0  0  0  0
    1.0959   -1.5971    0.0870 O   0  0  0  0  0  0  0  0  0  0  0  0
   -0.0163   -0.8774   -0.0013 C   0  0  0  0  0  0  0  0  0  0  0  0
   -3.0233    0.7567   -0.2401 H   0  0  0  0  0  0  0  0  0  0  0  0
   -0.9923    2.3349   -0.0788 H   0  0  0  0  0  0  0  0  0  0  0  0
    2.2164    1.4423    0.1760 H   0  0  0  0  0  0  0  0  0  0  0  0
    3.1885   -1.0282    0.2533 H   0  0  0  0  0  0  0  0  0  0  0  0
  1  2  2  0
  2  3  1  0
  3  4  2  0
  4  5  1  0
  5  6  1  0
  6  7  2  0
  7  8  1  0
  8  9  1  0
  9  2  1  0
  9  5  2  0
  3 10  1  0
  4 11  1  0
  6 12  1  0
  7 13  1  0
M  END
