
     RDKit          3D

 17 19  0  0  0  0  0  0  0  0999 V2000
   -1.3095   -2.3352   -0.5484 O   0  0  0  0  0  0  0  0  0  0  0  0
   -0.7422   -1.2568   -0.6030 C   0  0  0  0  0  0  0  0  0  0  0  0
    0.6091   -0.6871   -0.8364 C   0  0  0  0  0  0  0  0  0  0  0  0
    1.5151   -0.6847    0.3621 C   0  0  0  0  0  0  0  0  0  0  0  0
    1.3861    0.5062    1.0120 O   0  0  0  0  0  0  0  0  0  0  0  0
    0.2940    1.1805    0.5503 C   0  0  0  0  0  0  0  0  0  0  0  0
   -1.0593    0.6181    0.9662 C   0  0  0  0  0  0  0  0  0  0  0  0
   -1.2485    0.1203   -0.4334 C   0  0  0  0  0  0  0  0  0  0  0  0
    0.0511    0.6989   -0.8153 C   0  0  0  0  0  0  0  0  0  0  0  0
    1.0675   -0.9983   -1.7917 H   0  0  0  0  0  0  0  0  0  0  0  0
    1.2650   -1.5050    1.0602 H   0  0  0  0  0  0  0  0  0  0  0  0
    2.5703   -0.8305    0.0355 H   0  0  0  0  0  0  0  0  0  0  0  0
    0.3338    2.2685    0.7301 H   0  0  0  0  0  0  0  0  0  0  0  0
   -1.8009    1.3676    1.2369 H   0  0  0  0  0  0  0  0  0  0  0  0
   -0.9398   -0.1920    1.7056 H   0  0  0  0  0  0  0  0  0  0  0  0
   -2.1491    0.4004   -0.9630 H   0  0  0  0  0  0  0  0  0  0  0  0
    0.1574    1.3292   -1.6679 H   0  0  0  0  0  0  0  0  0  0  0  0
  1  2  2  0
  2  3  1  0
  3  4  1  0
  4  5  1  0
  5  6  1  0
  6  7  1  0
  7  8  1  0
  8  9  1  0
  8  2  1  0
  9  3  1  0
  9  6  1  0
  3 10  1  0
  4 11  1  0
  4 12  1  0
  6 13  1  0
  7 14  1  0
  7 15  1  0
  8 16  1  0
  9 17  1  0
M  END
