
     RDKit          3D

 15 16  0  0  0  0  0  0  0  0999 V2000
   -0.7372    2.5903   -0.7849 O   0  0  0  0  0  0  0  0  0  0  0  0
   -0.2679    1.5294   -0.3572 C   0  0  0  0  0  0  0  0  0  0  0  0
    1.0684    1.2317   -0.6150 O   0  0  0  0  0  0  0  0  0  0  0  0
    1.5520   -0.0420   -0.2550 C   0  0  0  0  0  0  0  0  0  0  0  0
    0.6883   -0.7453    0.7471 C   0  0  0  0  0  0  0  0  0  0  0  0
   -0.1615   -1.6024    0.0405 O   0  0  0  0  0  0  0  0  0  0  0  0
   -1.1977   -0.7693   -0.3649 C   0  0  0  0  0  0  0  0  0  0  0  0
   -1.0220    0.5167    0.4283 C   0  0  0  0  0  0  0  0  0  0  0  0
   -0.1534    0.0983    1.4425 O   0  0  0  0  0  0  0  0  0  0  0  0
    1.6644   -0.6358   -1.2001 H   0  0  0  0  0  0  0  0  0  0  0  0
    2.5932    0.0604    0.1648 H   0  0  0  0  0  0  0  0  0  0  0  0
    1.2738   -1.3179    1.4918 H   0  0  0  0  0  0  0  0  0  0  0  0
   -1.1711   -0.5492   -1.4484 H   0  0  0  0  0  0  0  0  0  0  0  0
   -2.1474   -1.2398   -0.0797 H   0  0  0  0  0  0  0  0  0  0  0  0
   -1.9818    0.8747    0.7901 H   0  0  0  0  0  0  0  0  0  0  0  0
  1  2  2  0
  2  3  1  0
  3  4  1  0
  4  5  1  0
  5  6  1  0
  6  7  1  0
  7  8  1  0
  8  9  1  0
  8  2  1  0
  9  5  1  0
  4 10  1  0
  4 11  1  0
  5 12  1  0
  7 13  1  0
  7 14  1  0
  8 15  1  0
M  END
