
     RDKit          3D

 19 19  0  0  0  0  0  0  0  0999 V2000
   -3.3056   -0.4576    1.2551 O   0  0  0  0  0  0  0  0  0  0  0  0
   -2.3576   -0.1587    0.5864 C   0  0  0  0  0  0  0  0  0  0  0  0
   -1.9093    1.2017    0.2167 C   0  0  0  0  0  0  0  0  0  0  0  0
   -0.4289    0.9825    0.1188 C   0  0  0  0  0  0  0  0  0  0  0  0
   -0.1306   -0.2916   -0.0196 C   0  0  0  0  0  0  0  0  0  0  0  0
    1.1755   -0.9651   -0.1514 C   0  0  0  0  0  0  0  0  0  0  0  0
    2.3689   -0.1048   -0.1292 C   0  0  0  0  0  0  0  0  0  0  0  0
    2.4718    0.8499   -1.0967 O   0  0  0  0  0  0  0  0  0  0  0  0
   -1.3925   -1.0732   -0.0410 C   0  0  0  0  0  0  0  0  0  0  0  0
   -2.3524    1.4657   -0.7612 H   0  0  0  0  0  0  0  0  0  0  0  0
   -2.1780    1.9783    0.9394 H   0  0  0  0  0  0  0  0  0  0  0  0
    0.3587    1.7457    0.1516 H   0  0  0  0  0  0  0  0  0  0  0  0
    1.1365   -1.5713   -1.0807 H   0  0  0  0  0  0  0  0  0  0  0  0
    1.2438   -1.6990    0.6789 H   0  0  0  0  0  0  0  0  0  0  0  0
    3.2787   -0.7394   -0.1709 H   0  0  0  0  0  0  0  0  0  0  0  0
    2.4332    0.4212    0.8673 H   0  0  0  0  0  0  0  0  0  0  0  0
    2.5923    1.7693   -0.7472 H   0  0  0  0  0  0  0  0  0  0  0  0
   -1.3029   -2.0443    0.4832 H   0  0  0  0  0  0  0  0  0  0  0  0
   -1.7017   -1.3093   -1.0997 H   0  0  0  0  0  0  0  0  0  0  0  0
  1  2  2  0
  2  3  1  0
  3  4  1  0
  4  5  2  0
  5  6  1  0
  6  7  1  0
  7  8  1  0
  5  9  1  0
  9  2  1  0
  3 10  1  0
  3 11  1  0
  4 12  1  0
  6 13  1  0
  6 14  1  0
  7 15  1  0
  7 16  1  0
  8 17  1  0
  9 18  1  0
  9 19  1  0
M  END
