
     RDKit          3D

 17 18  0  0  0  0  0  0  0  0999 V2000
   -0.9311   -1.0037   -2.3218 O   0  0  0  0  0  0  0  0  0  0  0  0
   -0.6850   -0.5827   -1.2285 C   0  0  0  0  0  0  0  0  0  0  0  0
    0.1877   -1.1500   -0.1471 C   0  0  0  0  0  0  0  0  0  0  0  0
   -0.6795   -0.9247    1.0427 C   0  0  0  0  0  0  0  0  0  0  0  0
   -1.4296    0.1562    0.8305 C   0  0  0  0  0  0  0  0  0  0  0  0
   -1.1754    0.6787   -0.5566 C   0  0  0  0  0  0  0  0  0  0  0  0
   -0.1434    1.5702   -0.6053 O   0  0  0  0  0  0  0  0  0  0  0  0
    1.0136    1.2117   -0.0031 C   0  0  0  0  0  0  0  0  0  0  0  0
    1.3781   -0.2136    0.0354 C   0  0  0  0  0  0  0  0  0  0  0  0
    0.4778   -2.1741   -0.3100 H   0  0  0  0  0  0  0  0  0  0  0  0
   -0.6477   -1.5820    1.9085 H   0  0  0  0  0  0  0  0  0  0  0  0
   -2.1159    0.5867    1.5531 H   0  0  0  0  0  0  0  0  0  0  0  0
   -2.0639    1.0848   -1.0288 H   0  0  0  0  0  0  0  0  0  0  0  0
    0.9842    1.5971    1.0592 H   0  0  0  0  0  0  0  0  0  0  0  0
    1.8550    1.7675   -0.5166 H   0  0  0  0  0  0  0  0  0  0  0  0
    2.1492   -0.5118   -0.7296 H   0  0  0  0  0  0  0  0  0  0  0  0
    1.8260   -0.5104    1.0179 H   0  0  0  0  0  0  0  0  0  0  0  0
  1  2  2  0
  2  3  1  0
  3  4  1  0
  4  5  2  0
  5  6  1  0
  6  7  1  0
  7  8  1  0
  8  9  1  0
  6  2  1  0
  9  3  1  0
  3 10  1  0
  4 11  1  0
  5 12  1  0
  6 13  1  0
  8 14  1  0
  8 15  1  0
  9 16  1  0
  9 17  1  0
M  END
