
     RDKit          3D

 17 18  0  0  0  0  0  0  0  0999 V2000
   -1.9545   -0.6792    1.8870 O   0  0  0  0  0  0  0  0  0  0  0  0
   -1.4501   -0.8962    0.7698 C   0  0  0  0  0  0  0  0  0  0  0  0
   -0.9245   -1.9595    0.0344 O   0  0  0  0  0  0  0  0  0  0  0  0
   -0.1052   -1.0294   -0.6834 C   0  0  0  0  0  0  0  0  0  0  0  0
    1.1345   -0.7222    0.1082 C   0  0  0  0  0  0  0  0  0  0  0  0
    1.5352    0.7016    0.0752 C   0  0  0  0  0  0  0  0  0  0  0  0
    0.5917    1.6317   -0.0598 O   0  0  0  0  0  0  0  0  0  0  0  0
   -0.7098    1.3352   -0.0742 C   0  0  0  0  0  0  0  0  0  0  0  0
   -1.1502   -0.0284   -0.4053 C   0  0  0  0  0  0  0  0  0  0  0  0
    0.0187   -1.2560   -1.7405 H   0  0  0  0  0  0  0  0  0  0  0  0
    1.9527   -1.3601   -0.3275 H   0  0  0  0  0  0  0  0  0  0  0  0
    1.0238   -1.0417    1.1583 H   0  0  0  0  0  0  0  0  0  0  0  0
    2.1538    0.9058    0.9991 H   0  0  0  0  0  0  0  0  0  0  0  0
    2.2848    0.8268   -0.7626 H   0  0  0  0  0  0  0  0  0  0  0  0
   -1.1623    1.6165    0.9236 H   0  0  0  0  0  0  0  0  0  0  0  0
   -1.2202    2.0454   -0.7934 H   0  0  0  0  0  0  0  0  0  0  0  0
   -2.0183   -0.0902   -1.1091 H   0  0  0  0  0  0  0  0  0  0  0  0
  1  2  2  0
  2  3  1  0
  3  4  1  0
  4  5  1  0
  5  6  1  0
  6  7  1  0
  7  8  1  0
  8  9  1  0
  9  2  1  0
  9  4  1  0
  4 10  1  0
  5 11  1  0
  5 12  1  0
  6 13  1  0
  6 14  1  0
  8 15  1  0
  8 16  1  0
  9 17  1  0
M  END
