
     RDKit          3D

 14 15  0  0  0  0  0  0  0  0999 V2000
   -0.9576   -1.2425    2.2553 O   0  0  0  0  0  0  0  0  0  0  0  0
   -0.9860   -0.5417    1.2199 C   0  0  0  0  0  0  0  0  0  0  0  0
   -1.9300    0.3111    0.6692 O   0  0  0  0  0  0  0  0  0  0  0  0
   -1.3121    0.1784   -0.6231 C   0  0  0  0  0  0  0  0  0  0  0  0
   -0.1206   -0.2570    0.1152 C   0  0  0  0  0  0  0  0  0  0  0  0
    1.0323   -0.9285   -0.3732 C   0  0  0  0  0  0  0  0  0  0  0  0
    1.1296    0.4903    0.2511 C   0  0  0  0  0  0  0  0  0  0  0  0
    1.3283    1.5487   -0.6120 O   0  0  0  0  0  0  0  0  0  0  0  0
   -1.8204   -0.6976   -1.1238 H   0  0  0  0  0  0  0  0  0  0  0  0
   -1.2855    1.0981   -1.2121 H   0  0  0  0  0  0  0  0  0  0  0  0
    1.2259   -0.9241   -1.4842 H   0  0  0  0  0  0  0  0  0  0  0  0
    1.5975   -1.7250    0.1321 H   0  0  0  0  0  0  0  0  0  0  0  0
    1.5630    0.5288    1.2777 H   0  0  0  0  0  0  0  0  0  0  0  0
    0.5356    2.1612   -0.4921 H   0  0  0  0  0  0  0  0  0  0  0  0
  1  2  2  0
  2  3  1  0
  3  4  1  0
  4  5  1  0
  5  6  1  0
  6  7  1  0
  7  8  1  0
  5  2  1  0
  7  5  1  0
  4  9  1  0
  4 10  1  0
  6 11  1  0
  6 12  1  0
  7 13  1  0
  8 14  1  0
M  END
