
     RDKit          3D

 16 17  0  0  0  0  0  0  0  0999 V2000
    0.6995    1.6611    1.7979 O   0  0  0  0  0  0  0  0  0  0  0  0
    0.4746    0.9486    0.8762 C   0  0  0  0  0  0  0  0  0  0  0  0
    0.3567   -0.5538    0.8411 C   0  0  0  0  0  0  0  0  0  0  0  0
   -1.0856   -0.6460    0.3792 C   0  0  0  0  0  0  0  0  0  0  0  0
   -1.0783    0.4019   -0.7389 C   0  0  0  0  0  0  0  0  0  0  0  0
    0.2201    1.1757   -0.5775 C   0  0  0  0  0  0  0  0  0  0  0  0
    1.2175    0.3733   -1.1322 O   0  0  0  0  0  0  0  0  0  0  0  0
    1.2618   -0.7970   -0.3629 C   0  0  0  0  0  0  0  0  0  0  0  0
    0.6129   -1.0582    1.7352 H   0  0  0  0  0  0  0  0  0  0  0  0
   -1.7069   -0.2837    1.2410 H   0  0  0  0  0  0  0  0  0  0  0  0
   -1.3671   -1.6365    0.0227 H   0  0  0  0  0  0  0  0  0  0  0  0
   -1.0709   -0.1618   -1.6816 H   0  0  0  0  0  0  0  0  0  0  0  0
   -1.9654    1.0287   -0.5820 H   0  0  0  0  0  0  0  0  0  0  0  0
    0.2104    2.1869   -0.8993 H   0  0  0  0  0  0  0  0  0  0  0  0
    0.9275   -1.6728   -0.9574 H   0  0  0  0  0  0  0  0  0  0  0  0
    2.2932   -0.9664    0.0385 H   0  0  0  0  0  0  0  0  0  0  0  0
  1  2  2  0
  2  3  1  0
  3  4  1  0
  4  5  1  0
  5  6  1  0
  6  7  1  0
  7  8  1  0
  6  2  1  0
  8  3  1  0
  3  9  1  0
  4 10  1  0
  4 11  1  0
  5 12  1  0
  5 13  1  0
  6 14  1  0
  8 15  1  0
  8 16  1  0
M  END
