
     RDKit          3D

 17 18  0  0  0  0  0  0  0  0999 V2000
    2.3473    0.8477    1.6872 O   0  0  0  0  0  0  0  0  0  0  0  0
    1.6082    0.3372    0.8989 C   0  0  0  0  0  0  0  0  0  0  0  0
    1.8804    0.0265   -0.5417 C   0  0  0  0  0  0  0  0  0  0  0  0
    0.6759   -0.0545   -1.1815 O   0  0  0  0  0  0  0  0  0  0  0  0
   -0.3423   -0.0270   -0.2835 C   0  0  0  0  0  0  0  0  0  0  0  0
   -1.4136    1.0089   -0.4749 C   0  0  0  0  0  0  0  0  0  0  0  0
   -2.3802    0.0161   -0.3012 O   0  0  0  0  0  0  0  0  0  0  0  0
   -1.4635   -1.0148   -0.4808 C   0  0  0  0  0  0  0  0  0  0  0  0
    0.2100   -0.1401    1.1029 C   0  0  0  0  0  0  0  0  0  0  0  0
    2.5488    0.8298   -0.9067 H   0  0  0  0  0  0  0  0  0  0  0  0
    2.4221   -0.9610   -0.5594 H   0  0  0  0  0  0  0  0  0  0  0  0
   -1.4999    1.4606   -1.4692 H   0  0  0  0  0  0  0  0  0  0  0  0
   -1.3866    1.7464    0.3781 H   0  0  0  0  0  0  0  0  0  0  0  0
   -1.5775   -1.7612    0.3547 H   0  0  0  0  0  0  0  0  0  0  0  0
   -1.5185   -1.5219   -1.4386 H   0  0  0  0  0  0  0  0  0  0  0  0
   -0.3379    0.4313    1.8494 H   0  0  0  0  0  0  0  0  0  0  0  0
    0.2272   -1.2239    1.3664 H   0  0  0  0  0  0  0  0  0  0  0  0
  1  2  2  0
  2  3  1  0
  3  4  1  0
  4  5  1  0
  5  6  1  0
  6  7  1  0
  7  8  1  0
  5  9  1  0
  9  2  1  0
  8  5  1  0
  3 10  1  0
  3 11  1  0
  6 12  1  0
  6 13  1  0
  8 14  1  0
  8 15  1  0
  9 16  1  0
  9 17  1  0
M  END
