
     RDKit          3D

 19 19  0  0  0  0  0  0  0  0999 V2000
    2.8530   -0.0965   -0.7691 O   0  0  0  0  0  0  0  0  0  0  0  0
    1.8118   -0.0019   -0.1075 C   0  0  0  0  0  0  0  0  0  0  0  0
    1.1536    1.2795   -0.1866 C   0  0  0  0  0  0  0  0  0  0  0  0
   -0.1199    1.6363   -0.0249 C   0  0  0  0  0  0  0  0  0  0  0  0
   -1.4358    1.0925    0.2773 C   0  0  0  0  0  0  0  0  0  0  0  0
   -1.6913   -0.3020   -0.1266 C   0  0  0  0  0  0  0  0  0  0  0  0
   -0.4943   -1.1558   -0.3405 C   0  0  0  0  0  0  0  0  0  0  0  0
    0.1427   -1.3223    0.9000 O   0  0  0  0  0  0  0  0  0  0  0  0
    1.5079   -1.2673    0.6119 C   0  0  0  0  0  0  0  0  0  0  0  0
    1.8383    2.0720   -0.4194 H   0  0  0  0  0  0  0  0  0  0  0  0
   -0.1719    2.7236   -0.1769 H   0  0  0  0  0  0  0  0  0  0  0  0
   -1.6579    1.2448    1.3744 H   0  0  0  0  0  0  0  0  0  0  0  0
   -2.2117    1.7397   -0.2332 H   0  0  0  0  0  0  0  0  0  0  0  0
   -2.3177   -0.7967    0.6725 H   0  0  0  0  0  0  0  0  0  0  0  0
   -2.3353   -0.3844   -1.0507 H   0  0  0  0  0  0  0  0  0  0  0  0
   -0.8672   -2.1812   -0.6238 H   0  0  0  0  0  0  0  0  0  0  0  0
    0.1661   -0.7763   -1.1195 H   0  0  0  0  0  0  0  0  0  0  0  0
    1.6811   -2.0948   -0.1392 H   0  0  0  0  0  0  0  0  0  0  0  0
    2.1484   -1.4093    1.4817 H   0  0  0  0  0  0  0  0  0  0  0  0
  1  2  2  0
  2  3  1  0
  3  4  2  3
  4  5  1  0
  5  6  1  0
  6  7  1  0
  7  8  1  0
  8  9  1  0
  9  2  1  0
  3 10  1  0
  4 11  1  0
  5 12  1  0
  5 13  1  0
  6 14  1  0
  6 15  1  0
  7 16  1  0
  7 17  1  0
  9 18  1  0
  9 19  1  0
M  END
