
     RDKit          3D

 18 18  0  0  0  0  0  0  0  0999 V2000
    0.5652    2.4336   -0.6592 O   0  0  0  0  0  0  0  0  0  0  0  0
    0.2578    1.3753   -0.1356 C   0  0  0  0  0  0  0  0  0  0  0  0
   -1.1476    1.1206    0.2260 C   0  0  0  0  0  0  0  0  0  0  0  0
   -1.5551   -0.3171    0.0708 C   0  0  0  0  0  0  0  0  0  0  0  0
   -0.4428   -1.2235    0.5724 C   0  0  0  0  0  0  0  0  0  0  0  0
    0.7522   -0.9663   -0.3204 C   0  0  0  0  0  0  0  0  0  0  0  0
    1.3369    0.3846    0.1127 C   0  0  0  0  0  0  0  0  0  0  0  0
    2.4518    0.5984   -0.6684 O   0  0  0  0  0  0  0  0  0  0  0  0
   -1.3467    1.4217    1.2777 H   0  0  0  0  0  0  0  0  0  0  0  0
   -1.8530    1.7263   -0.3938 H   0  0  0  0  0  0  0  0  0  0  0  0
   -2.4783   -0.4651    0.6890 H   0  0  0  0  0  0  0  0  0  0  0  0
   -1.7216   -0.5763   -0.9938 H   0  0  0  0  0  0  0  0  0  0  0  0
   -0.1744   -0.9811    1.6278 H   0  0  0  0  0  0  0  0  0  0  0  0
   -0.7256   -2.2852    0.4517 H   0  0  0  0  0  0  0  0  0  0  0  0
    1.4910   -1.7662   -0.2428 H   0  0  0  0  0  0  0  0  0  0  0  0
    0.4232   -0.7882   -1.3801 H   0  0  0  0  0  0  0  0  0  0  0  0
    1.6282    0.3473    1.1916 H   0  0  0  0  0  0  0  0  0  0  0  0
    2.5389   -0.0388   -1.4255 H   0  0  0  0  0  0  0  0  0  0  0  0
  1  2  2  0
  2  3  1  0
  3  4  1  0
  4  5  1  0
  5  6  1  0
  6  7  1  0
  7  8  1  0
  7  2  1  0
  3  9  1  0
  3 10  1  0
  4 11  1  0
  4 12  1  0
  5 13  1  0
  5 14  1  0
  6 15  1  0
  6 16  1  0
  7 17  1  0
  8 18  1  0
M  END
