
     RDKit          3D

 15 16  0  0  0  0  0  0  0  0999 V2000
    2.0389   -1.5573   -0.3687 O   0  0  0  0  0  0  0  0  0  0  0  0
    1.1869   -0.7515   -0.0603 C   0  0  0  0  0  0  0  0  0  0  0  0
    1.5588    0.5562    0.5189 C   0  0  0  0  0  0  0  0  0  0  0  0
    0.7861    1.5903   -0.0555 O   0  0  0  0  0  0  0  0  0  0  0  0
   -0.4427    1.3841   -0.6424 C   0  0  0  0  0  0  0  0  0  0  0  0
   -1.0339    2.3603   -1.1427 O   0  0  0  0  0  0  0  0  0  0  0  0
   -1.0862    0.0569   -0.7026 C   0  0  0  0  0  0  0  0  0  0  0  0
   -1.2916   -0.5720    0.6649 C   0  0  0  0  0  0  0  0  0  0  0  0
   -0.2314   -1.0629   -0.2578 C   0  0  0  0  0  0  0  0  0  0  0  0
    1.4043    0.5017    1.6239 H   0  0  0  0  0  0  0  0  0  0  0  0
    2.6261    0.7928    0.3050 H   0  0  0  0  0  0  0  0  0  0  0  0
   -1.8450   -0.1009   -1.4914 H   0  0  0  0  0  0  0  0  0  0  0  0
   -0.9771   -0.0194    1.5687 H   0  0  0  0  0  0  0  0  0  0  0  0
   -2.2284   -1.1284    0.7679 H   0  0  0  0  0  0  0  0  0  0  0  0
   -0.4650   -2.0498   -0.7280 H   0  0  0  0  0  0  0  0  0  0  0  0
  1  2  2  0
  2  3  1  0
  3  4  1  0
  4  5  1  0
  5  6  2  0
  5  7  1  0
  7  8  1  0
  8  9  1  0
  9  2  1  0
  9  7  1  0
  3 10  1  0
  3 11  1  0
  7 12  1  0
  8 13  1  0
  8 14  1  0
  9 15  1  0
M  END
