
     RDKit          3D

 17 18  0  0  0  0  0  0  0  0999 V2000
    0.3294    0.3182    2.5370 O   0  0  0  0  0  0  0  0  0  0  0  0
   -0.2065    0.3045    1.4034 C   0  0  0  0  0  0  0  0  0  0  0  0
   -1.5002    0.7370    1.1668 O   0  0  0  0  0  0  0  0  0  0  0  0
   -2.0720    0.6151   -0.1435 C   0  0  0  0  0  0  0  0  0  0  0  0
   -1.5537   -0.6136   -0.8312 C   0  0  0  0  0  0  0  0  0  0  0  0
   -0.2967   -1.0048   -0.6512 C   0  0  0  0  0  0  0  0  0  0  0  0
    0.5666   -0.1966    0.2411 C   0  0  0  0  0  0  0  0  0  0  0  0
    2.0013   -0.4720    0.3892 C   0  0  0  0  0  0  0  0  0  0  0  0
    1.5339    0.6993   -0.4439 C   0  0  0  0  0  0  0  0  0  0  0  0
   -1.8753    1.5111   -0.7417 H   0  0  0  0  0  0  0  0  0  0  0  0
   -3.1637    0.4434    0.0279 H   0  0  0  0  0  0  0  0  0  0  0  0
   -2.1919   -1.2105   -1.4905 H   0  0  0  0  0  0  0  0  0  0  0  0
    0.1220   -1.8848   -1.1264 H   0  0  0  0  0  0  0  0  0  0  0  0
    2.4806   -0.1888    1.3482 H   0  0  0  0  0  0  0  0  0  0  0  0
    2.4146   -1.3610   -0.1070 H   0  0  0  0  0  0  0  0  0  0  0  0
    1.7265    1.7352   -0.0423 H   0  0  0  0  0  0  0  0  0  0  0  0
    1.6850    0.5684   -1.5359 H   0  0  0  0  0  0  0  0  0  0  0  0
  1  2  2  0
  2  3  1  0
  3  4  1  0
  4  5  1  0
  5  6  2  0
  6  7  1  0
  7  8  1  0
  8  9  1  0
  7  2  1  0
  9  7  1  0
  4 10  1  0
  4 11  1  0
  5 12  1  0
  6 13  1  0
  8 14  1  0
  8 15  1  0
  9 16  1  0
  9 17  1  0
M  END
