
     RDKit          3D

 16 17  0  0  0  0  0  0  0  0999 V2000
   -2.1640   -1.5936    1.0629 O   0  0  0  0  0  0  0  0  0  0  0  0
   -1.4967   -0.7460    0.4998 C   0  0  0  0  0  0  0  0  0  0  0  0
   -1.3824    0.7337    0.3949 C   0  0  0  0  0  0  0  0  0  0  0  0
   -0.2979    0.5954   -0.6329 C   0  0  0  0  0  0  0  0  0  0  0  0
    1.0716    1.0195   -0.2376 C   0  0  0  0  0  0  0  0  0  0  0  0
    1.7124   -0.2094    0.3055 C   0  0  0  0  0  0  0  0  0  0  0  0
    0.9127   -1.2598    0.1824 C   0  0  0  0  0  0  0  0  0  0  0  0
   -0.3588   -0.8940   -0.4505 C   0  0  0  0  0  0  0  0  0  0  0  0
   -1.1081    1.2369    1.3392 H   0  0  0  0  0  0  0  0  0  0  0  0
   -2.3374    1.1110   -0.0685 H   0  0  0  0  0  0  0  0  0  0  0  0
   -0.5497    0.8990   -1.6608 H   0  0  0  0  0  0  0  0  0  0  0  0
    1.1050    1.8150    0.5197 H   0  0  0  0  0  0  0  0  0  0  0  0
    1.6668    1.3278   -1.1276 H   0  0  0  0  0  0  0  0  0  0  0  0
    2.7009   -0.3110    0.7583 H   0  0  0  0  0  0  0  0  0  0  0  0
    1.1324   -2.2897    0.4992 H   0  0  0  0  0  0  0  0  0  0  0  0
   -0.6068   -1.4348   -1.3842 H   0  0  0  0  0  0  0  0  0  0  0  0
  1  2  2  0
  2  3  1  0
  3  4  1  0
  4  5  1  0
  5  6  1  0
  6  7  2  0
  7  8  1  0
  8  2  1  0
  8  4  1  0
  3  9  1  0
  3 10  1  0
  4 11  1  0
  5 12  1  0
  5 13  1  0
  6 14  1  0
  7 15  1  0
  8 16  1  0
M  END
