
     RDKit          3D

 17 19  0  0  0  0  0  0  0  0999 V2000
   -2.5725   -1.5742   -0.2317 O   0  0  0  0  0  0  0  0  0  0  0  0
   -1.7446   -0.7373    0.0485 C   0  0  0  0  0  0  0  0  0  0  0  0
   -0.4341   -1.0077    0.6641 C   0  0  0  0  0  0  0  0  0  0  0  0
    0.4446    0.0474    0.0710 C   0  0  0  0  0  0  0  0  0  0  0  0
    1.8455    0.0758    0.4729 C   0  0  0  0  0  0  0  0  0  0  0  0
    1.4339   -0.2099   -0.9746 C   0  0  0  0  0  0  0  0  0  0  0  0
   -0.4175    1.2583   -0.0598 C   0  0  0  0  0  0  0  0  0  0  0  0
   -1.3879    1.5357    0.8961 O   0  0  0  0  0  0  0  0  0  0  0  0
   -1.8311    0.7261   -0.1481 C   0  0  0  0  0  0  0  0  0  0  0  0
   -0.5471   -0.7926    1.7674 H   0  0  0  0  0  0  0  0  0  0  0  0
   -0.0729   -2.0262    0.5521 H   0  0  0  0  0  0  0  0  0  0  0  0
    2.4240    0.9677    0.7006 H   0  0  0  0  0  0  0  0  0  0  0  0
    2.2436   -0.8421    0.9938 H   0  0  0  0  0  0  0  0  0  0  0  0
    1.6360   -1.2105   -1.3926 H   0  0  0  0  0  0  0  0  0  0  0  0
    1.6778    0.6373   -1.6486 H   0  0  0  0  0  0  0  0  0  0  0  0
   -0.1720    2.0208   -0.8210 H   0  0  0  0  0  0  0  0  0  0  0  0
   -2.5256    1.1315   -0.8901 H   0  0  0  0  0  0  0  0  0  0  0  0
  1  2  2  0
  2  3  1  0
  3  4  1  0
  4  5  1  0
  5  6  1  0
  4  7  1  0
  7  8  1  0
  8  9  1  0
  9  2  1  0
  6  4  1  0
  9  7  1  0
  3 10  1  0
  3 11  1  0
  5 12  1  0
  5 13  1  0
  6 14  1  0
  6 15  1  0
  7 16  1  0
  9 17  1  0
M  END
