
     RDKit          3D

 18 18  0  0  0  0  0  0  0  0999 V2000
    0.1286   -1.3714    1.7618 O   0  0  0  0  0  0  0  0  0  0  0  0
    0.1505   -1.1298    0.5916 C   0  0  0  0  0  0  0  0  0  0  0  0
   -1.1859   -1.0271   -0.0602 C   0  0  0  0  0  0  0  0  0  0  0  0
   -1.6207    0.4162   -0.1060 C   0  0  0  0  0  0  0  0  0  0  0  0
   -0.4881    1.3852   -0.1297 C   0  0  0  0  0  0  0  0  0  0  0  0
    0.5737    1.0175   -0.9172 O   0  0  0  0  0  0  0  0  0  0  0  0
    1.6745    0.5587   -0.1737 C   0  0  0  0  0  0  0  0  0  0  0  0
    1.4562   -0.9582   -0.0920 C   0  0  0  0  0  0  0  0  0  0  0  0
   -1.9317   -1.6176    0.5151 H   0  0  0  0  0  0  0  0  0  0  0  0
   -1.1473   -1.4958   -1.0706 H   0  0  0  0  0  0  0  0  0  0  0  0
   -2.2905    0.5942   -0.9633 H   0  0  0  0  0  0  0  0  0  0  0  0
   -2.2172    0.6400    0.8121 H   0  0  0  0  0  0  0  0  0  0  0  0
   -0.1398    1.6696    0.9017 H   0  0  0  0  0  0  0  0  0  0  0  0
   -0.8895    2.3503   -0.5567 H   0  0  0  0  0  0  0  0  0  0  0  0
    1.6300    0.9282    0.8770 H   0  0  0  0  0  0  0  0  0  0  0  0
    2.6094    0.8080   -0.6793 H   0  0  0  0  0  0  0  0  0  0  0  0
    1.4185   -1.3038   -1.1428 H   0  0  0  0  0  0  0  0  0  0  0  0
    2.2694   -1.4643    0.4322 H   0  0  0  0  0  0  0  0  0  0  0  0
  1  2  2  0
  2  3  1  0
  3  4  1  0
  4  5  1  0
  5  6  1  0
  6  7  1  0
  7  8  1  0
  8  2  1  0
  3  9  1  0
  3 10  1  0
  4 11  1  0
  4 12  1  0
  5 13  1  0
  5 14  1  0
  7 15  1  0
  7 16  1  0
  8 17  1  0
  8 18  1  0
M  END
