
     RDKit          3D

 15 16  0  0  0  0  0  0  0  0999 V2000
   -0.1209   -1.9435    1.3400 O   0  0  0  0  0  0  0  0  0  0  0  0
   -0.0794   -1.1207    0.4739 C   0  0  0  0  0  0  0  0  0  0  0  0
    1.1382   -0.5114   -0.0855 C   0  0  0  0  0  0  0  0  0  0  0  0
    2.2482   -0.6507    0.7337 O   0  0  0  0  0  0  0  0  0  0  0  0
    0.7147    0.9416   -0.2197 C   0  0  0  0  0  0  0  0  0  0  0  0
   -0.1878    1.4844    0.6516 O   0  0  0  0  0  0  0  0  0  0  0  0
   -0.6939    0.8661   -0.5592 C   0  0  0  0  0  0  0  0  0  0  0  0
   -1.2193   -0.5221   -0.2370 C   0  0  0  0  0  0  0  0  0  0  0  0
   -2.3448   -0.3629    0.5664 O   0  0  0  0  0  0  0  0  0  0  0  0
    1.3222   -0.8748   -1.1166 H   0  0  0  0  0  0  0  0  0  0  0  0
    2.9129    0.0703    0.6222 H   0  0  0  0  0  0  0  0  0  0  0  0
    1.3736    1.6446   -0.7528 H   0  0  0  0  0  0  0  0  0  0  0  0
   -1.2383    1.5239   -1.2306 H   0  0  0  0  0  0  0  0  0  0  0  0
   -1.4742   -1.0803   -1.1629 H   0  0  0  0  0  0  0  0  0  0  0  0
   -2.3514    0.5355    0.9764 H   0  0  0  0  0  0  0  0  0  0  0  0
  1  2  2  0
  2  3  1  0
  3  4  1  0
  3  5  1  0
  5  6  1  0
  6  7  1  0
  7  8  1  0
  8  9  1  0
  8  2  1  0
  7  5  1  0
  3 10  1  0
  4 11  1  0
  5 12  1  0
  7 13  1  0
  8 14  1  0
  9 15  1  0
M  END
