
     RDKit          3D

 16 16  0  0  0  0  0  0  0  0999 V2000
    1.4159   -1.2685   -2.0955 O   0  0  0  0  0  0  0  0  0  0  0  0
    0.9490   -0.9763   -0.9425 C   0  0  0  0  0  0  0  0  0  0  0  0
    1.6836    0.0066   -0.1548 C   0  0  0  0  0  0  0  0  0  0  0  0
    0.9174    1.1825    0.2818 C   0  0  0  0  0  0  0  0  0  0  0  0
   -0.3960    1.2690    0.3876 C   0  0  0  0  0  0  0  0  0  0  0  0
   -1.4567    0.3200    0.1335 C   0  0  0  0  0  0  0  0  0  0  0  0
   -1.1653   -1.1290    0.3363 C   0  0  0  0  0  0  0  0  0  0  0  0
   -0.2109   -1.6337   -0.5720 O   0  0  0  0  0  0  0  0  0  0  0  0
    2.2469   -0.4758    0.6971 H   0  0  0  0  0  0  0  0  0  0  0  0
    2.5180    0.4086   -0.8040 H   0  0  0  0  0  0  0  0  0  0  0  0
    1.5069    2.0831    0.5463 H   0  0  0  0  0  0  0  0  0  0  0  0
   -0.7658    2.2546    0.7370 H   0  0  0  0  0  0  0  0  0  0  0  0
   -2.3361    0.5520    0.8076 H   0  0  0  0  0  0  0  0  0  0  0  0
   -1.9028    0.4411   -0.8994 H   0  0  0  0  0  0  0  0  0  0  0  0
   -2.1078   -1.6861    0.1469 H   0  0  0  0  0  0  0  0  0  0  0  0
   -0.8964   -1.3480    1.3939 H   0  0  0  0  0  0  0  0  0  0  0  0
  1  2  2  0
  2  3  1  0
  3  4  1  0
  4  5  2  0
  5  6  1  0
  6  7  1  0
  7  8  1  0
  8  2  1  0
  3  9  1  0
  3 10  1  0
  4 11  1  0
  5 12  1  0
  6 13  1  0
  6 14  1  0
  7 15  1  0
  7 16  1  0
M  END
