
     RDKit          3D

 17 18  0  0  0  0  0  0  0  0999 V2000
   -0.2029   -1.5386   -2.0046 O   0  0  0  0  0  0  0  0  0  0  0  0
    0.3461   -0.6513   -1.3058 C   0  0  0  0  0  0  0  0  0  0  0  0
    1.5368    0.0141   -1.5580 O   0  0  0  0  0  0  0  0  0  0  0  0
    2.0017    0.6575   -0.3700 C   0  0  0  0  0  0  0  0  0  0  0  0
    1.1485    0.0242    0.7384 C   0  0  0  0  0  0  0  0  0  0  0  0
   -0.1578   -0.1123   -0.0467 C   0  0  0  0  0  0  0  0  0  0  0  0
   -1.2786   -0.7652    0.6273 C   0  0  0  0  0  0  0  0  0  0  0  0
   -1.9843    0.4990    0.1269 C   0  0  0  0  0  0  0  0  0  0  0  0
   -0.7748    1.1294   -0.1037 O   0  0  0  0  0  0  0  0  0  0  0  0
    3.0550    0.4068   -0.2180 H   0  0  0  0  0  0  0  0  0  0  0  0
    1.8027    1.7552   -0.4071 H   0  0  0  0  0  0  0  0  0  0  0  0
    1.5242   -0.9816    0.9441 H   0  0  0  0  0  0  0  0  0  0  0  0
    1.0384    0.6773    1.6018 H   0  0  0  0  0  0  0  0  0  0  0  0
   -1.2527   -0.7165    1.7401 H   0  0  0  0  0  0  0  0  0  0  0  0
   -1.7109   -1.6849    0.2159 H   0  0  0  0  0  0  0  0  0  0  0  0
   -2.6127    0.9974    0.8706 H   0  0  0  0  0  0  0  0  0  0  0  0
   -2.4786    0.2894   -0.8510 H   0  0  0  0  0  0  0  0  0  0  0  0
  1  2  2  0
  2  3  1  0
  3  4  1  0
  4  5  1  0
  5  6  1  0
  6  7  1  0
  7  8  1  0
  8  9  1  0
  6  2  1  0
  9  6  1  0
  4 10  1  0
  4 11  1  0
  5 12  1  0
  5 13  1  0
  7 14  1  0
  7 15  1  0
  8 16  1  0
  8 17  1  0
M  END
