
     RDKit          3D

 17 18  0  0  0  0  0  0  0  0999 V2000
   -0.3984    1.4241   -2.1214 O   0  0  0  0  0  0  0  0  0  0  0  0
   -0.3252    0.7512   -1.1088 C   0  0  0  0  0  0  0  0  0  0  0  0
   -1.4959    0.1695   -0.3830 C   0  0  0  0  0  0  0  0  0  0  0  0
   -2.0840    1.1134    0.4536 O   0  0  0  0  0  0  0  0  0  0  0  0
   -0.9228   -0.9776    0.4267 C   0  0  0  0  0  0  0  0  0  0  0  0
    0.5398   -1.0765    0.0539 C   0  0  0  0  0  0  0  0  0  0  0  0
    0.8657    0.3419   -0.3537 C   0  0  0  0  0  0  0  0  0  0  0  0
    2.1945    0.8291   -0.5277 C   0  0  0  0  0  0  0  0  0  0  0  0
    1.4462    1.1953    0.5755 O   0  0  0  0  0  0  0  0  0  0  0  0
   -2.2595   -0.2397   -1.0701 H   0  0  0  0  0  0  0  0  0  0  0  0
   -2.2777    0.6743    1.3410 H   0  0  0  0  0  0  0  0  0  0  0  0
   -1.0644   -0.8188    1.5244 H   0  0  0  0  0  0  0  0  0  0  0  0
   -1.4291   -1.9269    0.1889 H   0  0  0  0  0  0  0  0  0  0  0  0
    0.5954   -1.7336   -0.8520 H   0  0  0  0  0  0  0  0  0  0  0  0
    1.1681   -1.4467    0.8700 H   0  0  0  0  0  0  0  0  0  0  0  0
    2.3987    1.5781   -1.3306 H   0  0  0  0  0  0  0  0  0  0  0  0
    3.0487    0.1429   -0.2566 H   0  0  0  0  0  0  0  0  0  0  0  0
  1  2  2  0
  2  3  1  0
  3  4  1  0
  3  5  1  0
  5  6  1  0
  6  7  1  0
  7  8  1  0
  8  9  1  0
  7  2  1  0
  9  7  1  0
  3 10  1  0
  4 11  1  0
  5 12  1  0
  5 13  1  0
  6 14  1  0
  6 15  1  0
  8 16  1  0
  8 17  1  0
M  END
