
     RDKit          3D

 17 18  0  0  0  0  0  0  0  0999 V2000
    1.2548    3.0024   -0.1933 O   0  0  0  0  0  0  0  0  0  0  0  0
    1.0826    1.7517   -0.2114 C   0  0  0  0  0  0  0  0  0  0  0  0
    1.9309    0.8644    0.4478 O   0  0  0  0  0  0  0  0  0  0  0  0
    1.8848   -0.4836    0.0270 C   0  0  0  0  0  0  0  0  0  0  0  0
    0.4950   -1.0473    0.0242 C   0  0  0  0  0  0  0  0  0  0  0  0
   -0.5389   -0.0197   -0.2917 C   0  0  0  0  0  0  0  0  0  0  0  0
   -1.9350   -0.3485   -0.5763 C   0  0  0  0  0  0  0  0  0  0  0  0
   -1.6172    0.2419    0.7467 C   0  0  0  0  0  0  0  0  0  0  0  0
    0.0207    1.1534   -0.8982 O   0  0  0  0  0  0  0  0  0  0  0  0
    2.5218   -1.0665    0.7518 H   0  0  0  0  0  0  0  0  0  0  0  0
    2.3878   -0.5674   -0.9550 H   0  0  0  0  0  0  0  0  0  0  0  0
    0.3045   -1.4297    1.0702 H   0  0  0  0  0  0  0  0  0  0  0  0
    0.4459   -1.9416   -0.6211 H   0  0  0  0  0  0  0  0  0  0  0  0
   -2.4821    0.3506   -1.2746 H   0  0  0  0  0  0  0  0  0  0  0  0
   -2.3210   -1.3834   -0.6561 H   0  0  0  0  0  0  0  0  0  0  0  0
   -1.5349   -0.3748    1.6596 H   0  0  0  0  0  0  0  0  0  0  0  0
   -1.8996    1.2981    0.9505 H   0  0  0  0  0  0  0  0  0  0  0  0
  1  2  2  0
  2  3  1  0
  3  4  1  0
  4  5  1  0
  5  6  1  0
  6  7  1  0
  7  8  1  0
  6  9  1  0
  9  2  1  0
  8  6  1  0
  4 10  1  0
  4 11  1  0
  5 12  1  0
  5 13  1  0
  7 14  1  0
  7 15  1  0
  8 16  1  0
  8 17  1  0
M  END
