
     RDKit          3D

 19 20  0  0  0  0  0  0  0  0999 V2000
    2.6392    0.6290    1.7701 O   0  0  0  0  0  0  0  0  0  0  0  0
    1.8782    0.4022    0.8823 C   0  0  0  0  0  0  0  0  0  0  0  0
    1.6871   -0.9020    0.2231 C   0  0  0  0  0  0  0  0  0  0  0  0
    0.2338   -0.9116    0.0333 C   0  0  0  0  0  0  0  0  0  0  0  0
   -0.9112   -1.5095    0.1237 C   0  0  0  0  0  0  0  0  0  0  0  0
   -2.0180   -0.6226   -0.3810 C   0  0  0  0  0  0  0  0  0  0  0  0
   -1.4182    0.7737   -0.2595 C   0  0  0  0  0  0  0  0  0  0  0  0
    0.0234    0.4779   -0.5695 C   0  0  0  0  0  0  0  0  0  0  0  0
    0.9561    1.3414    0.2315 C   0  0  0  0  0  0  0  0  0  0  0  0
    2.0735   -1.7532    0.7984 H   0  0  0  0  0  0  0  0  0  0  0  0
    2.1359   -0.8170   -0.7911 H   0  0  0  0  0  0  0  0  0  0  0  0
   -1.1027   -2.5221    0.5078 H   0  0  0  0  0  0  0  0  0  0  0  0
   -2.8839   -0.7037    0.2963 H   0  0  0  0  0  0  0  0  0  0  0  0
   -2.2264   -0.8576   -1.4321 H   0  0  0  0  0  0  0  0  0  0  0  0
   -1.8323    1.4328   -1.0272 H   0  0  0  0  0  0  0  0  0  0  0  0
   -1.5131    1.1772    0.7665 H   0  0  0  0  0  0  0  0  0  0  0  0
    0.2640    0.4109   -1.6286 H   0  0  0  0  0  0  0  0  0  0  0  0
    0.4242    2.0060    0.9392 H   0  0  0  0  0  0  0  0  0  0  0  0
    1.5904    1.9483   -0.4832 H   0  0  0  0  0  0  0  0  0  0  0  0
  1  2  2  0
  2  3  1  0
  3  4  1  0
  4  5  2  0
  5  6  1  0
  6  7  1  0
  7  8  1  0
  8  9  1  0
  9  2  1  0
  8  4  1  0
  3 10  1  0
  3 11  1  0
  5 12  1  0
  6 13  1  0
  6 14  1  0
  7 15  1  0
  7 16  1  0
  8 17  1  0
  9 18  1  0
  9 19  1  0
M  END
