
     RDKit          3D

 17 18  0  0  0  0  0  0  0  0999 V2000
   -0.6736   -0.0302    2.2888 O   0  0  0  0  0  0  0  0  0  0  0  0
   -0.6058    0.1020    1.0960 C   0  0  0  0  0  0  0  0  0  0  0  0
   -1.6371    0.6917    0.2203 C   0  0  0  0  0  0  0  0  0  0  0  0
   -1.5051   -0.1398   -1.0435 C   0  0  0  0  0  0  0  0  0  0  0  0
   -0.1689   -0.7914   -0.9663 C   0  0  0  0  0  0  0  0  0  0  0  0
    0.2257   -1.5942   -1.7869 O   0  0  0  0  0  0  0  0  0  0  0  0
    0.4963   -0.2813    0.2253 C   0  0  0  0  0  0  0  0  0  0  0  0
    1.6697    0.6022   -0.0107 C   0  0  0  0  0  0  0  0  0  0  0  0
    1.8135   -0.7065    0.6989 C   0  0  0  0  0  0  0  0  0  0  0  0
   -2.6570    0.6360    0.6494 H   0  0  0  0  0  0  0  0  0  0  0  0
   -1.3378    1.7561    0.0156 H   0  0  0  0  0  0  0  0  0  0  0  0
   -2.3379   -0.8747   -1.0486 H   0  0  0  0  0  0  0  0  0  0  0  0
   -1.5670    0.5656   -1.9111 H   0  0  0  0  0  0  0  0  0  0  0  0
    1.7720    1.5623    0.5584 H   0  0  0  0  0  0  0  0  0  0  0  0
    2.1263    0.6378   -1.0249 H   0  0  0  0  0  0  0  0  0  0  0  0
    1.9968   -0.5991    1.7977 H   0  0  0  0  0  0  0  0  0  0  0  0
    2.3899   -1.5366    0.2416 H   0  0  0  0  0  0  0  0  0  0  0  0
  1  2  2  0
  2  3  1  0
  3  4  1  0
  4  5  1  0
  5  6  2  0
  5  7  1  0
  7  8  1  0
  8  9  1  0
  7  2  1  0
  9  7  1  0
  3 10  1  0
  3 11  1  0
  4 12  1  0
  4 13  1  0
  8 14  1  0
  8 15  1  0
  9 16  1  0
  9 17  1  0
M  END
