
     RDKit          3D

 17 19  0  0  0  0  0  0  0  0999 V2000
    2.0526   -1.6779   -0.9515 O   0  0  0  0  0  0  0  0  0  0  0  0
    1.2793   -0.8007   -0.6047 C   0  0  0  0  0  0  0  0  0  0  0  0
    1.6751    0.4635    0.0751 C   0  0  0  0  0  0  0  0  0  0  0  0
    0.3261    1.0516    0.5132 C   0  0  0  0  0  0  0  0  0  0  0  0
   -0.7022    0.1175    1.0096 C   0  0  0  0  0  0  0  0  0  0  0  0
   -0.8634   -1.2691    0.4847 C   0  0  0  0  0  0  0  0  0  0  0  0
   -0.1947   -0.8322   -0.7961 C   0  0  0  0  0  0  0  0  0  0  0  0
   -0.5941    0.5701   -0.4816 C   0  0  0  0  0  0  0  0  0  0  0  0
   -1.7081    1.1604   -0.9580 O   0  0  0  0  0  0  0  0  0  0  0  0
    2.1541    1.1732   -0.6551 H   0  0  0  0  0  0  0  0  0  0  0  0
    2.3200    0.2797    0.9585 H   0  0  0  0  0  0  0  0  0  0  0  0
    0.3467    2.0439    0.9587 H   0  0  0  0  0  0  0  0  0  0  0  0
   -1.5427    0.5192    1.5812 H   0  0  0  0  0  0  0  0  0  0  0  0
   -0.3278   -2.0748    1.0143 H   0  0  0  0  0  0  0  0  0  0  0  0
   -1.9227   -1.5463    0.2744 H   0  0  0  0  0  0  0  0  0  0  0  0
   -0.5639   -1.2772   -1.7138 H   0  0  0  0  0  0  0  0  0  0  0  0
   -1.7342    2.0991   -0.7091 H   0  0  0  0  0  0  0  0  0  0  0  0
  1  2  2  0
  2  3  1  0
  3  4  1  0
  4  5  1  0
  5  6  1  0
  6  7  1  0
  7  8  1  0
  8  9  1  0
  7  2  1  0
  8  4  1  0
  8  5  1  0
  3 10  1  0
  3 11  1  0
  4 12  1  0
  5 13  1  0
  6 14  1  0
  6 15  1  0
  7 16  1  0
  9 17  1  0
M  END
