
     RDKit          3D

 15 15  0  0  0  0  0  0  0  0999 V2000
    3.0087    0.0565   -0.3869 O   0  0  0  0  0  0  0  0  0  0  0  0
    1.7518   -0.0133   -0.2044 C   0  0  0  0  0  0  0  0  0  0  0  0
    1.0314    1.2338    0.0337 C   0  0  0  0  0  0  0  0  0  0  0  0
   -0.2938    1.3667    0.0253 C   0  0  0  0  0  0  0  0  0  0  0  0
   -1.3918    0.4178   -0.2005 C   0  0  0  0  0  0  0  0  0  0  0  0
   -1.1661   -0.9361    0.3970 C   0  0  0  0  0  0  0  0  0  0  0  0
   -0.1700   -1.6861   -0.2629 O   0  0  0  0  0  0  0  0  0  0  0  0
    1.1909   -1.3765   -0.2612 C   0  0  0  0  0  0  0  0  0  0  0  0
    2.0155   -2.3307   -0.3121 O   0  0  0  0  0  0  0  0  0  0  0  0
    1.6416    2.1038    0.2300 H   0  0  0  0  0  0  0  0  0  0  0  0
   -0.5915    2.3868    0.2281 H   0  0  0  0  0  0  0  0  0  0  0  0
   -2.3277    0.8233    0.2358 H   0  0  0  0  0  0  0  0  0  0  0  0
   -1.5901    0.3066   -1.2984 H   0  0  0  0  0  0  0  0  0  0  0  0
   -0.9904   -0.8459    1.4877 H   0  0  0  0  0  0  0  0  0  0  0  0
   -2.1184   -1.5067    0.2886 H   0  0  0  0  0  0  0  0  0  0  0  0
  1  2  2  0
  2  3  1  0
  3  4  2  0
  4  5  1  0
  5  6  1  0
  6  7  1  0
  7  8  1  0
  8  9  2  0
  8  2  1  0
  3 10  1  0
  4 11  1  0
  5 12  1  0
  5 13  1  0
  6 14  1  0
  6 15  1  0
M  END
