
     RDKit          3D

 17 18  0  0  0  0  0  0  0  0999 V2000
    2.6030    1.5098   -0.4593 O   0  0  0  0  0  0  0  0  0  0  0  0
    1.5615    0.8345   -0.2945 C   0  0  0  0  0  0  0  0  0  0  0  0
    1.7224   -0.6532   -0.1059 C   0  0  0  0  0  0  0  0  0  0  0  0
    0.7758   -1.0498    0.7835 O   0  0  0  0  0  0  0  0  0  0  0  0
   -0.5243   -0.8879    0.4935 C   0  0  0  0  0  0  0  0  0  0  0  0
   -0.9049   -0.3757   -0.8361 C   0  0  0  0  0  0  0  0  0  0  0  0
   -0.9610    1.0335   -0.2292 C   0  0  0  0  0  0  0  0  0  0  0  0
   -1.1661    0.3501    1.1106 C   0  0  0  0  0  0  0  0  0  0  0  0
    0.3631    1.5356   -0.3037 O   0  0  0  0  0  0  0  0  0  0  0  0
    2.7185   -0.8086    0.3296 H   0  0  0  0  0  0  0  0  0  0  0  0
    1.6893   -1.1711   -1.0836 H   0  0  0  0  0  0  0  0  0  0  0  0
   -1.1111   -1.8109    0.7515 H   0  0  0  0  0  0  0  0  0  0  0  0
   -0.2172   -0.4832   -1.6690 H   0  0  0  0  0  0  0  0  0  0  0  0
   -1.9563   -0.6570   -1.1132 H   0  0  0  0  0  0  0  0  0  0  0  0
   -1.7550    1.6717   -0.5900 H   0  0  0  0  0  0  0  0  0  0  0  0
   -2.2334    0.1778    1.2718 H   0  0  0  0  0  0  0  0  0  0  0  0
   -0.6040    0.7845    1.9442 H   0  0  0  0  0  0  0  0  0  0  0  0
  1  2  2  0
  2  3  1  0
  3  4  1  0
  4  5  1  0
  5  6  1  0
  6  7  1  0
  7  8  1  0
  7  9  1  0
  9  2  1  0
  8  5  1  0
  3 10  1  0
  3 11  1  0
  5 12  1  0
  6 13  1  0
  6 14  1  0
  7 15  1  0
  8 16  1  0
  8 17  1  0
M  END
