
     RDKit          3D

 19 20  0  0  0  0  0  0  0  0999 V2000
   -2.1110   -1.4131   -1.3644 O   0  0  0  0  0  0  0  0  0  0  0  0
   -1.2732   -0.7866   -0.7468 C   0  0  0  0  0  0  0  0  0  0  0  0
   -1.0334    0.6788   -0.8734 C   0  0  0  0  0  0  0  0  0  0  0  0
   -0.2678    1.0810    0.3846 C   0  0  0  0  0  0  0  0  0  0  0  0
    1.2252    1.1229    0.0966 C   0  0  0  0  0  0  0  0  0  0  0  0
    1.8424   -0.0834    0.4281 O   0  0  0  0  0  0  0  0  0  0  0  0
    1.1319   -1.0846   -0.2331 C   0  0  0  0  0  0  0  0  0  0  0  0
   -0.2789   -1.2363    0.2677 C   0  0  0  0  0  0  0  0  0  0  0  0
   -0.4781   -0.1242    1.3111 C   0  0  0  0  0  0  0  0  0  0  0  0
   -1.9709    1.2498   -0.9802 H   0  0  0  0  0  0  0  0  0  0  0  0
   -0.3657    0.8087   -1.7605 H   0  0  0  0  0  0  0  0  0  0  0  0
   -0.6400    2.0036    0.8274 H   0  0  0  0  0  0  0  0  0  0  0  0
    1.3412    1.2184   -1.0156 H   0  0  0  0  0  0  0  0  0  0  0  0
    1.7050    1.9854    0.6178 H   0  0  0  0  0  0  0  0  0  0  0  0
    1.1317   -0.7781   -1.3198 H   0  0  0  0  0  0  0  0  0  0  0  0
    1.6865   -2.0282   -0.0832 H   0  0  0  0  0  0  0  0  0  0  0  0
   -0.5069   -2.2222    0.6806 H   0  0  0  0  0  0  0  0  0  0  0  0
    0.3402   -0.2383    2.0265 H   0  0  0  0  0  0  0  0  0  0  0  0
   -1.4784   -0.1539    1.7366 H   0  0  0  0  0  0  0  0  0  0  0  0
  1  2  2  0
  2  3  1  0
  3  4  1  0
  4  5  1  0
  5  6  1  0
  6  7  1  0
  7  8  1  0
  8  9  1  0
  8  2  1  0
  9  4  1  0
  3 10  1  0
  3 11  1  0
  4 12  1  0
  5 13  1  0
  5 14  1  0
  7 15  1  0
  7 16  1  0
  8 17  1  0
  9 18  1  0
  9 19  1  0
M  END
