
     RDKit          3D

 19 19  0  0  0  0  0  0  0  0999 V2000
   -2.6858    1.8714    1.1684 O   0  0  0  0  0  0  0  0  0  0  0  0
   -1.8113    1.1097    0.8737 C   0  0  0  0  0  0  0  0  0  0  0  0
   -0.3511    1.0267    1.0753 C   0  0  0  0  0  0  0  0  0  0  0  0
   -0.2983    0.2647   -0.2347 C   0  0  0  0  0  0  0  0  0  0  0  0
    0.6130   -0.9182   -0.2641 C   0  0  0  0  0  0  0  0  0  0  0  0
    2.0629   -0.5674    0.0108 C   0  0  0  0  0  0  0  0  0  0  0  0
    2.1937    0.0149    1.2714 O   0  0  0  0  0  0  0  0  0  0  0  0
   -1.7127   -0.1688    0.1446 C   0  0  0  0  0  0  0  0  0  0  0  0
   -2.5696   -0.3481   -0.9163 O   0  0  0  0  0  0  0  0  0  0  0  0
    0.1998    1.9882    1.0702 H   0  0  0  0  0  0  0  0  0  0  0  0
   -0.0295    0.3440    1.9026 H   0  0  0  0  0  0  0  0  0  0  0  0
   -0.2624    0.9205   -1.1255 H   0  0  0  0  0  0  0  0  0  0  0  0
    0.5506   -1.3452   -1.2963 H   0  0  0  0  0  0  0  0  0  0  0  0
    0.2292   -1.6818    0.4107 H   0  0  0  0  0  0  0  0  0  0  0  0
    2.4480    0.1157   -0.7748 H   0  0  0  0  0  0  0  0  0  0  0  0
    2.6460   -1.5013   -0.0345 H   0  0  0  0  0  0  0  0  0  0  0  0
    2.5870    0.9235    1.1756 H   0  0  0  0  0  0  0  0  0  0  0  0
   -1.6626   -1.0504    0.8297 H   0  0  0  0  0  0  0  0  0  0  0  0
   -2.1468   -0.9980   -1.5321 H   0  0  0  0  0  0  0  0  0  0  0  0
  1  2  2  0
  2  3  1  0
  3  4  1  0
  4  5  1  0
  5  6  1  0
  6  7  1  0
  4  8  1  0
  8  9  1  0
  8  2  1  0
  3 10  1  0
  3 11  1  0
  4 12  1  0
  5 13  1  0
  5 14  1  0
  6 15  1  0
  6 16  1  0
  7 17  1  0
  8 18  1  0
  9 19  1  0
M  END
