
     RDKit          3D

 17 18  0  0  0  0  0  0  0  0999 V2000
   -1.9080   -2.1731    0.9730 O   0  0  0  0  0  0  0  0  0  0  0  0
   -1.5192   -1.1605    0.4592 C   0  0  0  0  0  0  0  0  0  0  0  0
   -1.7405    0.2731    0.2663 C   0  0  0  0  0  0  0  0  0  0  0  0
   -0.5721    0.9867    0.9359 C   0  0  0  0  0  0  0  0  0  0  0  0
    0.5053   -0.0371    0.5266 C   0  0  0  0  0  0  0  0  0  0  0  0
    1.6461    0.6234   -0.1807 C   0  0  0  0  0  0  0  0  0  0  0  0
    2.5637   -0.3744   -0.5091 O   0  0  0  0  0  0  0  0  0  0  0  0
   -0.3646   -0.8458   -0.4165 C   0  0  0  0  0  0  0  0  0  0  0  0
   -1.2002    0.0884   -1.0277 O   0  0  0  0  0  0  0  0  0  0  0  0
   -2.7064    0.7013    0.3423 H   0  0  0  0  0  0  0  0  0  0  0  0
   -0.4384    1.9402    0.4075 H   0  0  0  0  0  0  0  0  0  0  0  0
   -0.6760    1.0590    2.0168 H   0  0  0  0  0  0  0  0  0  0  0  0
    0.7586   -0.5986    1.4214 H   0  0  0  0  0  0  0  0  0  0  0  0
    1.2254    1.0462   -1.1378 H   0  0  0  0  0  0  0  0  0  0  0  0
    2.1552    1.3738    0.4181 H   0  0  0  0  0  0  0  0  0  0  0  0
    2.1918   -1.2902   -0.3682 H   0  0  0  0  0  0  0  0  0  0  0  0
    0.0793   -1.6124   -0.9999 H   0  0  0  0  0  0  0  0  0  0  0  0
  1  2  2  0
  2  3  1  0
  3  4  1  0
  4  5  1  0
  5  6  1  0
  6  7  1  0
  5  8  1  0
  8  9  1  0
  8  2  1  0
  9  3  1  0
  3 10  1  0
  4 11  1  0
  4 12  1  0
  5 13  1  0
  6 14  1  0
  6 15  1  0
  7 16  1  0
  8 17  1  0
M  END
