
     RDKit          3D

 15 16  0  0  0  0  0  0  0  0999 V2000
    0.0221   -0.3097    2.8787 O   0  0  0  0  0  0  0  0  0  0  0  0
   -0.2238   -0.0348    1.6713 C   0  0  0  0  0  0  0  0  0  0  0  0
   -1.0366    1.0039    1.2331 O   0  0  0  0  0  0  0  0  0  0  0  0
   -1.2925    0.8639   -0.1477 C   0  0  0  0  0  0  0  0  0  0  0  0
   -0.3534   -0.1919   -0.6565 C   0  0  0  0  0  0  0  0  0  0  0  0
   -0.8907   -1.0345   -1.6162 O   0  0  0  0  0  0  0  0  0  0  0  0
    1.0968   -0.0134   -0.5470 C   0  0  0  0  0  0  0  0  0  0  0  0
    1.6520    1.1680   -0.0559 O   0  0  0  0  0  0  0  0  0  0  0  0
    0.3127   -0.7731    0.5290 C   0  0  0  0  0  0  0  0  0  0  0  0
   -2.3417    0.5375   -0.2625 H   0  0  0  0  0  0  0  0  0  0  0  0
   -1.2005    1.8311   -0.6782 H   0  0  0  0  0  0  0  0  0  0  0  0
   -0.6685   -1.9551   -1.3505 H   0  0  0  0  0  0  0  0  0  0  0  0
    1.7694   -0.5795   -1.1929 H   0  0  0  0  0  0  0  0  0  0  0  0
    2.5727    1.3253   -0.4005 H   0  0  0  0  0  0  0  0  0  0  0  0
    0.5821   -1.8379    0.5955 H   0  0  0  0  0  0  0  0  0  0  0  0
  1  2  2  0
  2  3  1  0
  3  4  1  0
  4  5  1  0
  5  6  1  0
  5  7  1  0
  7  8  1  0
  7  9  1  0
  9  2  1  0
  9  5  1  0
  4 10  1  0
  4 11  1  0
  6 12  1  0
  7 13  1  0
  8 14  1  0
  9 15  1  0
M  END
