
     RDKit          3D

 17 18  0  0  0  0  0  0  0  0999 V2000
   -2.3467   -0.2955    1.4866 O   0  0  0  0  0  0  0  0  0  0  0  0
   -1.6442   -0.1606    0.5047 C   0  0  0  0  0  0  0  0  0  0  0  0
   -1.2819    0.9263   -0.4598 C   0  0  0  0  0  0  0  0  0  0  0  0
   -0.1273    0.1057   -0.9264 C   0  0  0  0  0  0  0  0  0  0  0  0
    1.0922    0.3522   -0.0653 C   0  0  0  0  0  0  0  0  0  0  0  0
    0.7907    1.1833    1.0289 O   0  0  0  0  0  0  0  0  0  0  0  0
    1.3560   -1.0153    0.5018 C   0  0  0  0  0  0  0  0  0  0  0  0
    0.2018   -1.7386    0.4651 O   0  0  0  0  0  0  0  0  0  0  0  0
   -0.7525   -1.0832   -0.2496 C   0  0  0  0  0  0  0  0  0  0  0  0
   -2.0619    1.1737   -1.1999 H   0  0  0  0  0  0  0  0  0  0  0  0
   -0.9425    1.8452    0.0788 H   0  0  0  0  0  0  0  0  0  0  0  0
    0.0398    0.0326   -2.0013 H   0  0  0  0  0  0  0  0  0  0  0  0
    1.9068    0.7503   -0.6799 H   0  0  0  0  0  0  0  0  0  0  0  0
    1.2540    2.0643    0.9514 H   0  0  0  0  0  0  0  0  0  0  0  0
    1.7163   -0.9407    1.5483 H   0  0  0  0  0  0  0  0  0  0  0  0
    2.1780   -1.4638   -0.0876 H   0  0  0  0  0  0  0  0  0  0  0  0
   -1.3786   -1.7359   -0.8958 H   0  0  0  0  0  0  0  0  0  0  0  0
  1  2  2  0
  2  3  1  0
  3  4  1  0
  4  5  1  0
  5  6  1  0
  5  7  1  0
  7  8  1  0
  8  9  1  0
  9  2  1  0
  9  4  1  0
  3 10  1  0
  3 11  1  0
  4 12  1  0
  5 13  1  0
  6 14  1  0
  7 15  1  0
  7 16  1  0
  9 17  1  0
M  END
