
     RDKit          3D

 14 15  0  0  0  0  0  0  0  0999 V2000
   -1.4845   -1.4491    1.5229 O   0  0  0  0  0  0  0  0  0  0  0  0
   -1.3005   -0.7836    0.4847 C   0  0  0  0  0  0  0  0  0  0  0  0
   -2.0136    0.2660   -0.0632 O   0  0  0  0  0  0  0  0  0  0  0  0
   -0.7927    0.7382   -0.6065 C   0  0  0  0  0  0  0  0  0  0  0  0
    0.1330    1.3273    0.3940 C   0  0  0  0  0  0  0  0  0  0  0  0
    1.1744    0.5406    0.6250 C   0  0  0  0  0  0  0  0  0  0  0  0
    1.0798   -0.6962   -0.2034 C   0  0  0  0  0  0  0  0  0  0  0  0
   -0.3671   -0.7014   -0.6322 C   0  0  0  0  0  0  0  0  0  0  0  0
   -0.8562    1.2594   -1.5644 H   0  0  0  0  0  0  0  0  0  0  0  0
   -0.0202    2.2820    0.8779 H   0  0  0  0  0  0  0  0  0  0  0  0
    2.0141    0.7111    1.3080 H   0  0  0  0  0  0  0  0  0  0  0  0
    1.7760   -0.6579   -1.0506 H   0  0  0  0  0  0  0  0  0  0  0  0
    1.2548   -1.5733    0.4518 H   0  0  0  0  0  0  0  0  0  0  0  0
   -0.5974   -1.2629   -1.5437 H   0  0  0  0  0  0  0  0  0  0  0  0
  1  2  2  0
  2  3  1  0
  3  4  1  0
  4  5  1  0
  5  6  2  0
  6  7  1  0
  7  8  1  0
  8  2  1  0
  8  4  1  0
  4  9  1  0
  5 10  1  0
  6 11  1  0
  7 12  1  0
  7 13  1  0
  8 14  1  0
M  END
