
     RDKit          3D

 15 18  0  0  0  0  0  0  0  0999 V2000
   -2.5064    0.5933    0.2334 O   0  0  0  0  0  0  0  0  0  0  0  0
   -1.3668    0.2457    0.1469 C   0  0  0  0  0  0  0  0  0  0  0  0
   -0.8160   -1.0803    0.5032 C   0  0  0  0  0  0  0  0  0  0  0  0
    0.2656   -1.2982   -0.4708 C   0  0  0  0  0  0  0  0  0  0  0  0
    0.5821   -0.8615    0.8903 C   0  0  0  0  0  0  0  0  0  0  0  0
    0.9496    0.4883    0.3883 C   0  0  0  0  0  0  0  0  0  0  0  0
    0.5986    0.0361   -1.0370 C   0  0  0  0  0  0  0  0  0  0  0  0
   -0.2099    1.0329   -0.3328 C   0  0  0  0  0  0  0  0  0  0  0  0
   -0.3230    2.3382   -0.6913 O   0  0  0  0  0  0  0  0  0  0  0  0
   -1.4445   -1.8933    0.8449 H   0  0  0  0  0  0  0  0  0  0  0  0
    0.5329   -2.2394   -0.9215 H   0  0  0  0  0  0  0  0  0  0  0  0
    1.1437   -1.4230    1.6156 H   0  0  0  0  0  0  0  0  0  0  0  0
    1.8886    0.9824    0.5656 H   0  0  0  0  0  0  0  0  0  0  0  0
    1.2849    0.2090   -1.8446 H   0  0  0  0  0  0  0  0  0  0  0  0
   -0.5794    2.8699    0.1097 H   0  0  0  0  0  0  0  0  0  0  0  0
  1  2  2  0
  2  3  1  0
  3  4  1  0
  4  5  1  0
  5  6  1  0
  6  7  1  0
  7  8  1  0
  8  9  1  0
  8  2  1  0
  5  3  1  0
  8  6  1  0
  7  4  1  0
  3 10  1  0
  4 11  1  0
  5 12  1  0
  6 13  1  0
  7 14  1  0
  9 15  1  0
M  END
