
     RDKit          3D

 15 16  0  0  0  0  0  0  0  0999 V2000
    2.4009    1.5093    0.0909 O   0  0  0  0  0  0  0  0  0  0  0  0
    1.2829    0.9330   -0.0196 C   0  0  0  0  0  0  0  0  0  0  0  0
    1.1417   -0.4472   -0.5344 C   0  0  0  0  0  0  0  0  0  0  0  0
   -0.3227   -0.7067   -0.5566 C   0  0  0  0  0  0  0  0  0  0  0  0
   -0.8926   -0.9763    0.8034 C   0  0  0  0  0  0  0  0  0  0  0  0
   -1.9109   -0.0864    0.5389 O   0  0  0  0  0  0  0  0  0  0  0  0
   -1.0447    0.5857   -0.3307 C   0  0  0  0  0  0  0  0  0  0  0  0
   -0.0416    1.4404    0.3055 C   0  0  0  0  0  0  0  0  0  0  0  0
   -0.2374    2.4510    1.0198 O   0  0  0  0  0  0  0  0  0  0  0  0
    1.6699   -0.6045   -1.4712 H   0  0  0  0  0  0  0  0  0  0  0  0
    1.5966   -1.1185    0.2434 H   0  0  0  0  0  0  0  0  0  0  0  0
   -0.7128   -1.3394   -1.3755 H   0  0  0  0  0  0  0  0  0  0  0  0
   -0.2009   -0.6285    1.6146 H   0  0  0  0  0  0  0  0  0  0  0  0
   -1.1884   -2.0383    0.8909 H   0  0  0  0  0  0  0  0  0  0  0  0
   -1.5400    1.0264   -1.2194 H   0  0  0  0  0  0  0  0  0  0  0  0
  1  2  2  0
  2  3  1  0
  3  4  1  0
  4  5  1  0
  5  6  1  0
  6  7  1  0
  7  8  1  0
  8  9  2  0
  8  2  1  0
  7  4  1  0
  3 10  1  0
  3 11  1  0
  4 12  1  0
  5 13  1  0
  5 14  1  0
  7 15  1  0
M  END
