
     RDKit          3D

 19 20  0  0  0  0  0  0  0  0999 V2000
    1.0442    1.3424   -1.7124 O   0  0  0  0  0  0  0  0  0  0  0  0
    0.9377    0.7380   -0.6705 C   0  0  0  0  0  0  0  0  0  0  0  0
    1.8689   -0.2813   -0.0685 C   0  0  0  0  0  0  0  0  0  0  0  0
    0.8876   -1.3878    0.2585 C   0  0  0  0  0  0  0  0  0  0  0  0
   -0.3068   -0.6337    0.7659 C   0  0  0  0  0  0  0  0  0  0  0  0
   -1.5398   -0.7077   -0.1170 C   0  0  0  0  0  0  0  0  0  0  0  0
   -1.5386    0.8158   -0.1633 C   0  0  0  0  0  0  0  0  0  0  0  0
   -0.1515    0.8018    0.3634 C   0  0  0  0  0  0  0  0  0  0  0  0
    0.1472    1.6846    1.3848 O   0  0  0  0  0  0  0  0  0  0  0  0
    2.6577   -0.5789   -0.7466 H   0  0  0  0  0  0  0  0  0  0  0  0
    2.2035    0.1463    0.8872 H   0  0  0  0  0  0  0  0  0  0  0  0
    0.6268   -1.9462   -0.6782 H   0  0  0  0  0  0  0  0  0  0  0  0
    1.3168   -2.0858    1.0306 H   0  0  0  0  0  0  0  0  0  0  0  0
   -0.5180   -0.7905    1.8444 H   0  0  0  0  0  0  0  0  0  0  0  0
   -1.3629   -1.0888   -1.1401 H   0  0  0  0  0  0  0  0  0  0  0  0
   -2.4130   -1.1376    0.4053 H   0  0  0  0  0  0  0  0  0  0  0  0
   -2.2350    1.2604    0.6061 H   0  0  0  0  0  0  0  0  0  0  0  0
   -1.6517    1.2509   -1.1610 H   0  0  0  0  0  0  0  0  0  0  0  0
    0.0269    2.5981    1.0434 H   0  0  0  0  0  0  0  0  0  0  0  0
  1  2  2  0
  2  3  1  0
  3  4  1  0
  4  5  1  0
  5  6  1  0
  6  7  1  0
  7  8  1  0
  8  9  1  0
  8  2  1  0
  8  5  1  0
  3 10  1  0
  3 11  1  0
  4 12  1  0
  4 13  1  0
  5 14  1  0
  6 15  1  0
  6 16  1  0
  7 17  1  0
  7 18  1  0
  9 19  1  0
M  END
