
     RDKit          3D

 17 18  0  0  0  0  0  0  0  0999 V2000
   -2.6215    0.3327    0.4377 O   0  0  0  0  0  0  0  0  0  0  0  0
   -1.4936    0.2798    0.0548 C   0  0  0  0  0  0  0  0  0  0  0  0
   -0.9997   -0.9085   -0.6485 C   0  0  0  0  0  0  0  0  0  0  0  0
    0.4135   -1.1599   -0.1480 C   0  0  0  0  0  0  0  0  0  0  0  0
    1.2816   -0.0243   -0.6940 C   0  0  0  0  0  0  0  0  0  0  0  0
    0.8169    0.7518    0.5177 C   0  0  0  0  0  0  0  0  0  0  0  0
   -0.5581    1.3865    0.2662 C   0  0  0  0  0  0  0  0  0  0  0  0
    0.6329   -0.5630    1.2009 C   0  0  0  0  0  0  0  0  0  0  0  0
    0.6659   -0.9073    2.3711 O   0  0  0  0  0  0  0  0  0  0  0  0
   -0.9044   -0.7000   -1.7388 H   0  0  0  0  0  0  0  0  0  0  0  0
   -1.6470   -1.7951   -0.5038 H   0  0  0  0  0  0  0  0  0  0  0  0
    0.8092   -2.1600   -0.3076 H   0  0  0  0  0  0  0  0  0  0  0  0
    0.9735    0.3510   -1.6670 H   0  0  0  0  0  0  0  0  0  0  0  0
    2.3453   -0.3010   -0.5606 H   0  0  0  0  0  0  0  0  0  0  0  0
    1.5612    1.4203    0.9464 H   0  0  0  0  0  0  0  0  0  0  0  0
   -0.7757    2.0144    1.1461 H   0  0  0  0  0  0  0  0  0  0  0  0
   -0.5003    1.9827   -0.6727 H   0  0  0  0  0  0  0  0  0  0  0  0
  1  2  2  0
  2  3  1  0
  3  4  1  0
  4  5  1  0
  5  6  1  0
  6  7  1  0
  6  8  1  0
  8  9  2  0
  7  2  1  0
  8  4  1  0
  3 10  1  0
  3 11  1  0
  4 12  1  0
  5 13  1  0
  5 14  1  0
  6 15  1  0
  7 16  1  0
  7 17  1  0
M  END
