
     RDKit          3D

 15 16  0  0  0  0  0  0  0  0999 V2000
    3.2666   -0.5831    0.5469 O   0  0  0  0  0  0  0  0  0  0  0  0
    2.1578   -0.1795    0.1336 C   0  0  0  0  0  0  0  0  0  0  0  0
    1.4590   -0.7723   -0.9067 O   0  0  0  0  0  0  0  0  0  0  0  0
    0.0548   -0.8136   -0.9814 C   0  0  0  0  0  0  0  0  0  0  0  0
   -0.5289    0.0010    0.1542 C   0  0  0  0  0  0  0  0  0  0  0  0
    0.2305    1.2710    0.3039 C   0  0  0  0  0  0  0  0  0  0  0  0
    1.5584    0.9309    0.7316 O   0  0  0  0  0  0  0  0  0  0  0  0
   -1.9001   -0.2179    0.5008 C   0  0  0  0  0  0  0  0  0  0  0  0
   -0.8788   -0.6055    1.3346 O   0  0  0  0  0  0  0  0  0  0  0  0
   -0.2836   -1.8706   -0.9502 H   0  0  0  0  0  0  0  0  0  0  0  0
   -0.2449   -0.3903   -1.9649 H   0  0  0  0  0  0  0  0  0  0  0  0
    0.3508    1.7282   -0.6925 H   0  0  0  0  0  0  0  0  0  0  0  0
   -0.2586    1.9439    1.0427 H   0  0  0  0  0  0  0  0  0  0  0  0
   -2.4309   -1.0721    0.0161 H   0  0  0  0  0  0  0  0  0  0  0  0
   -2.5522    0.6299    0.7310 H   0  0  0  0  0  0  0  0  0  0  0  0
  1  2  2  0
  2  3  1  0
  3  4  1  0
  4  5  1  0
  5  6  1  0
  6  7  1  0
  5  8  1  0
  8  9  1  0
  7  2  1  0
  9  5  1  0
  4 10  1  0
  4 11  1  0
  6 12  1  0
  6 13  1  0
  8 14  1  0
  8 15  1  0
M  END
