
     RDKit          3D

 17 18  0  0  0  0  0  0  0  0999 V2000
    0.4163   -0.6118    2.4456 O   0  0  0  0  0  0  0  0  0  0  0  0
    0.2951   -0.5543    1.2357 C   0  0  0  0  0  0  0  0  0  0  0  0
   -0.7097   -1.0070    0.2199 C   0  0  0  0  0  0  0  0  0  0  0  0
   -1.6215    0.1346   -0.0715 C   0  0  0  0  0  0  0  0  0  0  0  0
   -0.8332    1.3633   -0.4040 C   0  0  0  0  0  0  0  0  0  0  0  0
    0.4934    1.2964   -0.3423 C   0  0  0  0  0  0  0  0  0  0  0  0
    1.0837    0.0029    0.0757 C   0  0  0  0  0  0  0  0  0  0  0  0
    2.4424   -0.0515    0.2097 O   0  0  0  0  0  0  0  0  0  0  0  0
    0.4629   -1.0894   -0.7661 C   0  0  0  0  0  0  0  0  0  0  0  0
   -1.1975   -1.9536    0.4243 H   0  0  0  0  0  0  0  0  0  0  0  0
   -2.3031   -0.0755   -0.9171 H   0  0  0  0  0  0  0  0  0  0  0  0
   -2.2264    0.3371    0.8337 H   0  0  0  0  0  0  0  0  0  0  0  0
   -1.3839    2.2563   -0.6813 H   0  0  0  0  0  0  0  0  0  0  0  0
    1.1685    2.1104   -0.5731 H   0  0  0  0  0  0  0  0  0  0  0  0
    2.7281    0.7179    0.7604 H   0  0  0  0  0  0  0  0  0  0  0  0
    0.2079   -0.8217   -1.7935 H   0  0  0  0  0  0  0  0  0  0  0  0
    0.9770   -2.0541   -0.6560 H   0  0  0  0  0  0  0  0  0  0  0  0
  1  2  2  0
  2  3  1  0
  3  4  1  0
  4  5  1  0
  5  6  2  0
  6  7  1  0
  7  8  1  0
  7  9  1  0
  7  2  1  0
  9  3  1  0
  3 10  1  0
  4 11  1  0
  4 12  1  0
  5 13  1  0
  6 14  1  0
  8 15  1  0
  9 16  1  0
  9 17  1  0
M  END
