
     RDKit          3D

 19 20  0  0  0  0  0  0  0  0999 V2000
    0.3386    2.2470   -0.2245 O   0  0  0  0  0  0  0  0  0  0  0  0
    0.8611    1.1427    0.0435 C   0  0  0  0  0  0  0  0  0  0  0  0
    2.2815    0.8643    0.1891 C   0  0  0  0  0  0  0  0  0  0  0  0
    2.5167   -0.4252    0.0378 C   0  0  0  0  0  0  0  0  0  0  0  0
    1.2417   -1.1260   -0.2279 C   0  0  0  0  0  0  0  0  0  0  0  0
    0.2106   -0.1871    0.2886 C   0  0  0  0  0  0  0  0  0  0  0  0
   -1.0852   -0.2247   -0.4551 C   0  0  0  0  0  0  0  0  0  0  0  0
   -2.0620    0.8772   -0.0142 C   0  0  0  0  0  0  0  0  0  0  0  0
   -2.3508   -0.6084    0.1918 C   0  0  0  0  0  0  0  0  0  0  0  0
    3.0193    1.6280    0.3924 H   0  0  0  0  0  0  0  0  0  0  0  0
    3.5270   -0.8397    0.1113 H   0  0  0  0  0  0  0  0  0  0  0  0
    1.1261   -1.2813   -1.3315 H   0  0  0  0  0  0  0  0  0  0  0  0
    1.2827   -2.0978    0.3108 H   0  0  0  0  0  0  0  0  0  0  0  0
    0.0712   -0.3723    1.3679 H   0  0  0  0  0  0  0  0  0  0  0  0
   -1.0207   -0.4127   -1.5473 H   0  0  0  0  0  0  0  0  0  0  0  0
   -2.5811    1.4033   -0.8441 H   0  0  0  0  0  0  0  0  0  0  0  0
   -1.8580    1.4056    0.9310 H   0  0  0  0  0  0  0  0  0  0  0  0
   -3.1797   -0.9753   -0.4339 H   0  0  0  0  0  0  0  0  0  0  0  0
   -2.3389   -1.0178    1.2143 H   0  0  0  0  0  0  0  0  0  0  0  0
  1  2  2  0
  2  3  1  0
  3  4  2  0
  4  5  1  0
  5  6  1  0
  6  7  1  0
  7  8  1  0
  8  9  1  0
  6  2  1  0
  9  7  1  0
  3 10  1  0
  4 11  1  0
  5 12  1  0
  5 13  1  0
  6 14  1  0
  7 15  1  0
  8 16  1  0
  8 17  1  0
  9 18  1  0
  9 19  1  0
M  END
