
     RDKit          3D

 15 17  0  0  0  0  0  0  0  0999 V2000
   -1.5058   -1.9945    0.7910 O   0  0  0  0  0  0  0  0  0  0  0  0
   -0.8717   -1.1303    0.2292 C   0  0  0  0  0  0  0  0  0  0  0  0
   -1.2315    0.3052    0.4439 C   0  0  0  0  0  0  0  0  0  0  0  0
   -0.1836    1.2809    0.0909 C   0  0  0  0  0  0  0  0  0  0  0  0
    0.2109    1.2289   -1.2537 O   0  0  0  0  0  0  0  0  0  0  0  0
    1.1255    0.8194   -0.3186 C   0  0  0  0  0  0  0  0  0  0  0  0
    1.3584   -0.5605    0.0946 C   0  0  0  0  0  0  0  0  0  0  0  0
    1.4897   -1.7103   -0.5241 O   0  0  0  0  0  0  0  0  0  0  0  0
    0.2496   -1.3321   -0.6708 C   0  0  0  0  0  0  0  0  0  0  0  0
   -2.1093    0.4763   -0.2500 H   0  0  0  0  0  0  0  0  0  0  0  0
   -1.6653    0.4558    1.4649 H   0  0  0  0  0  0  0  0  0  0  0  0
   -0.2360    2.2652    0.5975 H   0  0  0  0  0  0  0  0  0  0  0  0
    1.9848    1.5145   -0.2084 H   0  0  0  0  0  0  0  0  0  0  0  0
    1.3697   -0.6737    1.2215 H   0  0  0  0  0  0  0  0  0  0  0  0
    0.0146   -0.9449   -1.7081 H   0  0  0  0  0  0  0  0  0  0  0  0
  1  2  2  0
  2  3  1  0
  3  4  1  0
  4  5  1  0
  5  6  1  0
  6  7  1  0
  7  8  1  0
  8  9  1  0
  9  2  1  0
  6  4  1  0
  9  7  1  0
  3 10  1  0
  3 11  1  0
  4 12  1  0
  6 13  1  0
  7 14  1  0
  9 15  1  0
M  END
