
     RDKit          3D

 17 18  0  0  0  0  0  0  0  0999 V2000
    1.0876   -1.6287   -1.9015 O   0  0  0  0  0  0  0  0  0  0  0  0
    0.7194   -0.9298   -1.0142 C   0  0  0  0  0  0  0  0  0  0  0  0
    0.3858   -1.1942    0.4267 C   0  0  0  0  0  0  0  0  0  0  0  0
    1.1906   -0.0777    1.0452 C   0  0  0  0  0  0  0  0  0  0  0  0
    1.3357    0.9170    0.1531 C   0  0  0  0  0  0  0  0  0  0  0  0
    0.4317    0.5462   -0.9807 C   0  0  0  0  0  0  0  0  0  0  0  0
   -0.9634    0.5183   -0.4049 C   0  0  0  0  0  0  0  0  0  0  0  0
   -1.0528    1.5788    0.4994 O   0  0  0  0  0  0  0  0  0  0  0  0
   -1.0609   -0.7618    0.4246 C   0  0  0  0  0  0  0  0  0  0  0  0
    0.6049   -2.1670    0.7825 H   0  0  0  0  0  0  0  0  0  0  0  0
    1.6086   -0.0377    2.0491 H   0  0  0  0  0  0  0  0  0  0  0  0
    1.9384    1.7950    0.1843 H   0  0  0  0  0  0  0  0  0  0  0  0
    0.5754    1.0658   -1.8904 H   0  0  0  0  0  0  0  0  0  0  0  0
   -1.7324    0.5719   -1.1830 H   0  0  0  0  0  0  0  0  0  0  0  0
   -1.9704    1.9535    0.5325 H   0  0  0  0  0  0  0  0  0  0  0  0
   -1.6209   -1.5592   -0.1408 H   0  0  0  0  0  0  0  0  0  0  0  0
   -1.4774   -0.5906    1.4181 H   0  0  0  0  0  0  0  0  0  0  0  0
  1  2  2  0
  2  3  1  0
  3  4  1  0
  4  5  2  0
  5  6  1  0
  6  7  1  0
  7  8  1  0
  7  9  1  0
  6  2  1  0
  9  3  1  0
  3 10  1  0
  4 11  1  0
  5 12  1  0
  6 13  1  0
  7 14  1  0
  8 15  1  0
  9 16  1  0
  9 17  1  0
M  END
