
     RDKit          3D

 21 21  0  0  0  0  0  0  0  0999 V2000
   -1.1779    1.3475   -1.4974 O   0  0  0  0  0  0  0  0  0  0  0  0
   -0.8041    1.1623   -0.3566 C   0  0  0  0  0  0  0  0  0  0  0  0
   -1.6430    0.1432    0.3167 C   0  0  0  0  0  0  0  0  0  0  0  0
   -1.3537   -1.2381   -0.2394 C   0  0  0  0  0  0  0  0  0  0  0  0
    0.1202   -1.2730   -0.6194 C   0  0  0  0  0  0  0  0  0  0  0  0
    0.9233   -0.9807    0.6133 C   0  0  0  0  0  0  0  0  0  0  0  0
    1.7928    0.2344    0.3366 C   0  0  0  0  0  0  0  0  0  0  0  0
    1.2490    1.3883    0.8413 O   0  0  0  0  0  0  0  0  0  0  0  0
    0.3468    1.9993   -0.0156 C   0  0  0  0  0  0  0  0  0  0  0  0
   -1.4984    0.1512    1.4323 H   0  0  0  0  0  0  0  0  0  0  0  0
   -2.7300    0.3590    0.1708 H   0  0  0  0  0  0  0  0  0  0  0  0
   -1.9341   -1.4539   -1.1515 H   0  0  0  0  0  0  0  0  0  0  0  0
   -1.4927   -2.0131    0.5470 H   0  0  0  0  0  0  0  0  0  0  0  0
    0.2978   -0.5074   -1.4164 H   0  0  0  0  0  0  0  0  0  0  0  0
    0.3894   -2.2534   -1.0626 H   0  0  0  0  0  0  0  0  0  0  0  0
    1.5475   -1.8828    0.8493 H   0  0  0  0  0  0  0  0  0  0  0  0
    0.3039   -0.8103    1.5181 H   0  0  0  0  0  0  0  0  0  0  0  0
    2.0470    0.3034   -0.7563 H   0  0  0  0  0  0  0  0  0  0  0  0
    2.7617    0.0542    0.8535 H   0  0  0  0  0  0  0  0  0  0  0  0
   -0.0469    2.9016    0.5287 H   0  0  0  0  0  0  0  0  0  0  0  0
    0.9013    2.3683   -0.8923 H   0  0  0  0  0  0  0  0  0  0  0  0
  1  2  2  0
  2  3  1  0
  3  4  1  0
  4  5  1  0
  5  6  1  0
  6  7  1  0
  7  8  1  0
  8  9  1  0
  9  2  1  0
  3 10  1  0
  3 11  1  0
  4 12  1  0
  4 13  1  0
  5 14  1  0
  5 15  1  0
  6 16  1  0
  6 17  1  0
  7 18  1  0
  7 19  1  0
  9 20  1  0
  9 21  1  0
M  END
