
     RDKit          3D

 17 18  0  0  0  0  0  0  0  0999 V2000
   -0.4960   -1.5402   -1.4631 O   0  0  0  0  0  0  0  0  0  0  0  0
   -0.4675   -0.8346   -0.4573 C   0  0  0  0  0  0  0  0  0  0  0  0
    0.5799   -0.5941    0.6069 C   0  0  0  0  0  0  0  0  0  0  0  0
    1.9107   -0.4702   -0.0635 C   0  0  0  0  0  0  0  0  0  0  0  0
    2.9590   -0.2467    0.8095 O   0  0  0  0  0  0  0  0  0  0  0  0
   -0.1339    0.6824    0.9297 C   0  0  0  0  0  0  0  0  0  0  0  0
   -1.3254    0.0934    0.2432 C   0  0  0  0  0  0  0  0  0  0  0  0
   -2.5304    0.6622   -0.0237 C   0  0  0  0  0  0  0  0  0  0  0  0
   -2.3946   -0.4009    0.9315 O   0  0  0  0  0  0  0  0  0  0  0  0
    0.5204   -1.4000    1.3377 H   0  0  0  0  0  0  0  0  0  0  0  0
    1.9052    0.3448   -0.8142 H   0  0  0  0  0  0  0  0  0  0  0  0
    2.0965   -1.4097   -0.6288 H   0  0  0  0  0  0  0  0  0  0  0  0
    3.3786    0.6474    0.6481 H   0  0  0  0  0  0  0  0  0  0  0  0
   -0.3037    0.9090    1.9902 H   0  0  0  0  0  0  0  0  0  0  0  0
    0.3084    1.5167    0.3259 H   0  0  0  0  0  0  0  0  0  0  0  0
   -2.8535    1.6271    0.4242 H   0  0  0  0  0  0  0  0  0  0  0  0
   -3.1537    0.4134   -0.9273 H   0  0  0  0  0  0  0  0  0  0  0  0
  1  2  2  0
  2  3  1  0
  3  4  1  0
  4  5  1  0
  3  6  1  0
  6  7  1  0
  7  8  1  0
  8  9  1  0
  7  2  1  0
  9  7  1  0
  3 10  1  0
  4 11  1  0
  4 12  1  0
  5 13  1  0
  6 14  1  0
  6 15  1  0
  8 16  1  0
  8 17  1  0
M  END
