
     RDKit          3D

 19 20  0  0  0  0  0  0  0  0999 V2000
    0.4044    2.0708    1.3914 O   0  0  0  0  0  0  0  0  0  0  0  0
   -0.1124    1.1952    0.6491 C   0  0  0  0  0  0  0  0  0  0  0  0
   -1.5386    1.2295    0.3736 C   0  0  0  0  0  0  0  0  0  0  0  0
   -2.1921    0.0809    0.3334 C   0  0  0  0  0  0  0  0  0  0  0  0
   -1.3961   -1.1517    0.5772 C   0  0  0  0  0  0  0  0  0  0  0  0
   -0.1002   -1.1002   -0.2013 C   0  0  0  0  0  0  0  0  0  0  0  0
    0.7077    0.1269    0.0477 C   0  0  0  0  0  0  0  0  0  0  0  0
    1.6829    0.6180   -0.9818 C   0  0  0  0  0  0  0  0  0  0  0  0
    2.1519   -0.0011    0.3092 C   0  0  0  0  0  0  0  0  0  0  0  0
   -2.0687    2.1772    0.2055 H   0  0  0  0  0  0  0  0  0  0  0  0
   -3.2691    0.0520    0.1292 H   0  0  0  0  0  0  0  0  0  0  0  0
   -1.9774   -2.0160    0.1444 H   0  0  0  0  0  0  0  0  0  0  0  0
   -1.2301   -1.3425    1.6478 H   0  0  0  0  0  0  0  0  0  0  0  0
    0.5134   -1.9806    0.1406 H   0  0  0  0  0  0  0  0  0  0  0  0
   -0.3770   -1.2101   -1.2768 H   0  0  0  0  0  0  0  0  0  0  0  0
    1.7040   -0.0112   -1.9087 H   0  0  0  0  0  0  0  0  0  0  0  0
    1.8630    1.7056   -1.0719 H   0  0  0  0  0  0  0  0  0  0  0  0
    2.6753    0.5962    1.0633 H   0  0  0  0  0  0  0  0  0  0  0  0
    2.5590   -1.0388    0.2046 H   0  0  0  0  0  0  0  0  0  0  0  0
  1  2  2  0
  2  3  1  0
  3  4  2  0
  4  5  1  0
  5  6  1  0
  6  7  1  0
  7  8  1  0
  8  9  1  0
  7  2  1  0
  9  7  1  0
  3 10  1  0
  4 11  1  0
  5 12  1  0
  5 13  1  0
  6 14  1  0
  6 15  1  0
  8 16  1  0
  8 17  1  0
  9 18  1  0
  9 19  1  0
M  END
