
     RDKit          3D

 19 21  0  0  0  0  0  0  0  0999 V2000
    2.1017    1.7148   -1.2279 O   0  0  0  0  0  0  0  0  0  0  0  0
    1.3560    0.9462   -0.6973 C   0  0  0  0  0  0  0  0  0  0  0  0
    1.7027   -0.2373    0.1234 C   0  0  0  0  0  0  0  0  0  0  0  0
    0.4316   -1.0593    0.1593 C   0  0  0  0  0  0  0  0  0  0  0  0
   -0.6287   -0.4322    1.0259 C   0  0  0  0  0  0  0  0  0  0  0  0
   -0.5264    1.0506    0.7639 C   0  0  0  0  0  0  0  0  0  0  0  0
   -0.1209    0.9767   -0.7222 C   0  0  0  0  0  0  0  0  0  0  0  0
   -0.4238   -0.4666   -0.9778 C   0  0  0  0  0  0  0  0  0  0  0  0
   -1.6030   -0.7987   -0.0931 C   0  0  0  0  0  0  0  0  0  0  0  0
    2.5643   -0.8034   -0.2631 H   0  0  0  0  0  0  0  0  0  0  0  0
    1.9668    0.0519    1.1696 H   0  0  0  0  0  0  0  0  0  0  0  0
    0.5219   -2.1282    0.1670 H   0  0  0  0  0  0  0  0  0  0  0  0
   -0.8133   -0.7927    1.9952 H   0  0  0  0  0  0  0  0  0  0  0  0
   -1.5231    1.4855    0.7773 H   0  0  0  0  0  0  0  0  0  0  0  0
    0.2314    1.5582    1.3567 H   0  0  0  0  0  0  0  0  0  0  0  0
   -0.5874    1.6995   -1.3393 H   0  0  0  0  0  0  0  0  0  0  0  0
   -0.3333   -0.8972   -1.9365 H   0  0  0  0  0  0  0  0  0  0  0  0
   -1.9158   -1.8380   -0.1207 H   0  0  0  0  0  0  0  0  0  0  0  0
   -2.4008   -0.0299   -0.1603 H   0  0  0  0  0  0  0  0  0  0  0  0
  1  2  2  0
  2  3  1  0
  3  4  1  0
  4  5  1  0
  5  6  1  0
  6  7  1  0
  7  8  1  0
  8  9  1  0
  7  2  1  0
  8  4  1  0
  9  5  1  0
  3 10  1  0
  3 11  1  0
  4 12  1  0
  5 13  1  0
  6 14  1  0
  6 15  1  0
  7 16  1  0
  8 17  1  0
  9 18  1  0
  9 19  1  0
M  END
