
     RDKit          3D

 15 15  0  0  0  0  0  0  0  0999 V2000
    1.5140    1.9681   -0.5339 O   0  0  0  0  0  0  0  0  0  0  0  0
    0.9565    0.9816   -0.1011 C   0  0  0  0  0  0  0  0  0  0  0  0
    1.5338   -0.2923    0.4157 C   0  0  0  0  0  0  0  0  0  0  0  0
    0.3921   -1.2172    0.5658 C   0  0  0  0  0  0  0  0  0  0  0  0
    0.3259   -2.2172    1.2225 O   0  0  0  0  0  0  0  0  0  0  0  0
   -0.6856   -0.6591   -0.2726 C   0  0  0  0  0  0  0  0  0  0  0  0
   -1.9462   -1.1081    0.0773 O   0  0  0  0  0  0  0  0  0  0  0  0
   -0.5138    0.8153    0.0164 C   0  0  0  0  0  0  0  0  0  0  0  0
   -1.2128    1.6144   -0.8768 O   0  0  0  0  0  0  0  0  0  0  0  0
    2.1036   -0.1422    1.3521 H   0  0  0  0  0  0  0  0  0  0  0  0
    2.1833   -0.6862   -0.4028 H   0  0  0  0  0  0  0  0  0  0  0  0
   -0.4264   -0.8738   -1.3300 H   0  0  0  0  0  0  0  0  0  0  0  0
   -2.2818   -1.7014   -0.6561 H   0  0  0  0  0  0  0  0  0  0  0  0
   -0.8105    0.9747    1.0647 H   0  0  0  0  0  0  0  0  0  0  0  0
   -1.1320    2.5435   -0.5411 H   0  0  0  0  0  0  0  0  0  0  0  0
  1  2  2  0
  2  3  1  0
  3  4  1  0
  4  5  2  0
  4  6  1  0
  6  7  1  0
  6  8  1  0
  8  9  1  0
  8  2  1  0
  3 10  1  0
  3 11  1  0
  6 12  1  0
  7 13  1  0
  8 14  1  0
  9 15  1  0
M  END
