
     RDKit          3D

 16 18  0  0  0  0  0  0  0  0999 V2000
    1.9405    2.0458   -0.3874 O   0  0  0  0  0  0  0  0  0  0  0  0
    1.2507    1.0783   -0.2152 C   0  0  0  0  0  0  0  0  0  0  0  0
    1.6473   -0.3704   -0.0264 C   0  0  0  0  0  0  0  0  0  0  0  0
    0.2493   -0.9440    0.0925 C   0  0  0  0  0  0  0  0  0  0  0  0
   -0.6174   -0.2242   -0.8856 C   0  0  0  0  0  0  0  0  0  0  0  0
   -1.7200   -0.3337    0.1224 C   0  0  0  0  0  0  0  0  0  0  0  0
   -0.5190    0.0218    0.9481 C   0  0  0  0  0  0  0  0  0  0  0  0
   -0.2112    1.0168   -0.1357 C   0  0  0  0  0  0  0  0  0  0  0  0
    2.2086   -0.7537   -0.8779 H   0  0  0  0  0  0  0  0  0  0  0  0
    2.1459   -0.5015    0.9504 H   0  0  0  0  0  0  0  0  0  0  0  0
    0.1362   -1.9955    0.2480 H   0  0  0  0  0  0  0  0  0  0  0  0
   -0.6732   -0.3390   -1.8778 H   0  0  0  0  0  0  0  0  0  0  0  0
   -2.3952    0.5512    0.0561 H   0  0  0  0  0  0  0  0  0  0  0  0
   -2.1795   -1.3018    0.2790 H   0  0  0  0  0  0  0  0  0  0  0  0
   -0.4617    0.1524    1.9341 H   0  0  0  0  0  0  0  0  0  0  0  0
   -0.8015    1.8976   -0.2245 H   0  0  0  0  0  0  0  0  0  0  0  0
  1  2  2  0
  2  3  1  0
  3  4  1  0
  4  5  1  0
  5  6  1  0
  6  7  1  0
  7  8  1  0
  8  2  1  0
  7  4  1  0
  8  5  1  0
  3  9  1  0
  3 10  1  0
  4 11  1  0
  5 12  1  0
  6 13  1  0
  6 14  1  0
  7 15  1  0
  8 16  1  0
M  END
