
     RDKit          3D

 17 18  0  0  0  0  0  0  0  0999 V2000
    0.9303    0.6763    2.2700 O   0  0  0  0  0  0  0  0  0  0  0  0
    0.5817    0.2618    1.1854 C   0  0  0  0  0  0  0  0  0  0  0  0
    1.5175   -0.6013    0.4259 C   0  0  0  0  0  0  0  0  0  0  0  0
    1.5721   -0.0551   -0.9645 C   0  0  0  0  0  0  0  0  0  0  0  0
    0.4633    0.3724   -1.5451 C   0  0  0  0  0  0  0  0  0  0  0  0
   -0.8366    0.3261   -0.8568 C   0  0  0  0  0  0  0  0  0  0  0  0
   -1.2509   -0.9856   -0.5319 O   0  0  0  0  0  0  0  0  0  0  0  0
   -1.7801   -0.4666    0.6397 C   0  0  0  0  0  0  0  0  0  0  0  0
   -0.7272    0.5936    0.6210 C   0  0  0  0  0  0  0  0  0  0  0  0
    2.5558   -0.5668    0.8505 H   0  0  0  0  0  0  0  0  0  0  0  0
    1.1829   -1.6767    0.4248 H   0  0  0  0  0  0  0  0  0  0  0  0
    2.4927    0.0093   -1.5312 H   0  0  0  0  0  0  0  0  0  0  0  0
    0.5263    0.7613   -2.5466 H   0  0  0  0  0  0  0  0  0  0  0  0
   -1.5964    0.9226   -1.3683 H   0  0  0  0  0  0  0  0  0  0  0  0
   -1.7200   -1.1407    1.5197 H   0  0  0  0  0  0  0  0  0  0  0  0
   -2.7790   -0.0223    0.4783 H   0  0  0  0  0  0  0  0  0  0  0  0
   -1.1325    1.5918    0.9291 H   0  0  0  0  0  0  0  0  0  0  0  0
  1  2  2  0
  2  3  1  0
  3  4  1  0
  4  5  2  0
  5  6  1  0
  6  7  1  0
  7  8  1  0
  8  9  1  0
  9  2  1  0
  9  6  1  0
  3 10  1  0
  3 11  1  0
  4 12  1  0
  5 13  1  0
  6 14  1  0
  8 15  1  0
  8 16  1  0
  9 17  1  0
M  END
