
     RDKit          3D

 19 20  0  0  0  0  0  0  0  0999 V2000
   -1.0386    1.0790    2.1648 O   0  0  0  0  0  0  0  0  0  0  0  0
   -0.7681    0.8011    1.0200 C   0  0  0  0  0  0  0  0  0  0  0  0
   -1.4128    0.1275   -0.1208 C   0  0  0  0  0  0  0  0  0  0  0  0
   -0.9199   -1.2906   -0.3194 C   0  0  0  0  0  0  0  0  0  0  0  0
    0.4710   -1.4677    0.2376 C   0  0  0  0  0  0  0  0  0  0  0  0
    1.2793   -0.2104    0.2550 C   0  0  0  0  0  0  0  0  0  0  0  0
    0.4184    1.0220    0.1683 C   0  0  0  0  0  0  0  0  0  0  0  0
    1.0925    2.2012    0.3219 O   0  0  0  0  0  0  0  0  0  0  0  0
   -0.5090    0.9798   -1.0236 C   0  0  0  0  0  0  0  0  0  0  0  0
   -2.4776    0.2689   -0.2657 H   0  0  0  0  0  0  0  0  0  0  0  0
   -0.8191   -1.4190   -1.4377 H   0  0  0  0  0  0  0  0  0  0  0  0
   -1.6343   -2.0261    0.0495 H   0  0  0  0  0  0  0  0  0  0  0  0
    1.0379   -2.2046   -0.4034 H   0  0  0  0  0  0  0  0  0  0  0  0
    0.3971   -1.9607    1.2307 H   0  0  0  0  0  0  0  0  0  0  0  0
    2.0361   -0.1615   -0.5556 H   0  0  0  0  0  0  0  0  0  0  0  0
    1.8730   -0.1062    1.2083 H   0  0  0  0  0  0  0  0  0  0  0  0
    2.0328    1.9851    0.5685 H   0  0  0  0  0  0  0  0  0  0  0  0
   -0.9816    1.9406   -1.2286 H   0  0  0  0  0  0  0  0  0  0  0  0
   -0.0771    0.4413   -1.8698 H   0  0  0  0  0  0  0  0  0  0  0  0
  1  2  2  0
  2  3  1  0
  3  4  1  0
  4  5  1  0
  5  6  1  0
  6  7  1  0
  7  8  1  0
  7  9  1  0
  7  2  1  0
  9  3  1  0
  3 10  1  0
  4 11  1  0
  4 12  1  0
  5 13  1  0
  5 14  1  0
  6 15  1  0
  6 16  1  0
  8 17  1  0
  9 18  1  0
  9 19  1  0
M  END
