
     RDKit          3D

 13 15  0  0  0  0  0  0  0  0999 V2000
   -1.1841    1.7539   -1.2366 O   0  0  0  0  0  0  0  0  0  0  0  0
   -0.7881    0.8221   -0.6445 C   0  0  0  0  0  0  0  0  0  0  0  0
   -1.5103   -0.3514   -0.1220 C   0  0  0  0  0  0  0  0  0  0  0  0
   -1.0779   -0.3395    1.1978 O   0  0  0  0  0  0  0  0  0  0  0  0
    0.3259   -0.2839    1.0153 C   0  0  0  0  0  0  0  0  0  0  0  0
    0.5574   -0.9930   -0.2260 C   0  0  0  0  0  0  0  0  0  0  0  0
   -0.7359   -1.3866   -0.6371 O   0  0  0  0  0  0  0  0  0  0  0  0
    0.5855    0.4934   -0.2101 C   0  0  0  0  0  0  0  0  0  0  0  0
    1.6569    1.2495   -0.4626 O   0  0  0  0  0  0  0  0  0  0  0  0
   -2.5552   -0.4033   -0.2894 H   0  0  0  0  0  0  0  0  0  0  0  0
    0.9835   -0.3379    1.8702 H   0  0  0  0  0  0  0  0  0  0  0  0
    1.4169   -1.5946   -0.4866 H   0  0  0  0  0  0  0  0  0  0  0  0
    2.3254    1.3712    0.2316 H   0  0  0  0  0  0  0  0  0  0  0  0
  1  2  2  0
  2  3  1  0
  3  4  1  0
  4  5  1  0
  5  6  1  0
  6  7  1  0
  6  8  1  0
  8  9  1  0
  8  2  1  0
  7  3  1  0
  8  5  1  0
  3 10  1  0
  5 11  1  0
  6 12  1  0
  9 13  1  0
M  END
