
     RDKit          3D

 15 17  0  0  0  0  0  0  0  0999 V2000
   -2.9727    0.2581   -1.8180 O   0  0  0  0  0  0  0  0  0  0  0  0
   -1.9858   -0.2226   -1.2430 C   0  0  0  0  0  0  0  0  0  0  0  0
   -1.5964   -0.5798    0.1351 C   0  0  0  0  0  0  0  0  0  0  0  0
   -0.2628   -0.3431   -0.4123 C   0  0  0  0  0  0  0  0  0  0  0  0
   -0.7474   -0.6594   -1.6647 O   0  0  0  0  0  0  0  0  0  0  0  0
    1.0263   -0.6072    0.1395 C   0  0  0  0  0  0  0  0  0  0  0  0
    1.8835    0.3984    0.9355 C   0  0  0  0  0  0  0  0  0  0  0  0
    1.8254    1.0958   -0.3029 O   0  0  0  0  0  0  0  0  0  0  0  0
    0.4623    0.8425   -0.1490 C   0  0  0  0  0  0  0  0  0  0  0  0
   -1.8429   -1.6326    0.3899 H   0  0  0  0  0  0  0  0  0  0  0  0
   -1.8787    0.1502    0.9177 H   0  0  0  0  0  0  0  0  0  0  0  0
    1.7284   -0.9899   -0.6700 H   0  0  0  0  0  0  0  0  0  0  0  0
    2.8701    0.0227    1.1903 H   0  0  0  0  0  0  0  0  0  0  0  0
    1.3696    0.8752    1.7665 H   0  0  0  0  0  0  0  0  0  0  0  0
    0.1210    1.3916    0.7855 H   0  0  0  0  0  0  0  0  0  0  0  0
  1  2  2  0
  2  3  1  0
  3  4  1  0
  4  5  1  0
  4  6  1  0
  6  7  1  0
  7  8  1  0
  8  9  1  0
  5  2  1  0
  9  6  1  0
  9  4  1  0
  3 10  1  0
  3 11  1  0
  6 12  1  0
  7 13  1  0
  7 14  1  0
  9 15  1  0
M  END
