
     RDKit          3D

 17 18  0  0  0  0  0  0  0  0999 V2000
    0.0393    2.3786    0.7094 O   0  0  0  0  0  0  0  0  0  0  0  0
   -0.4979    1.3381    0.2556 C   0  0  0  0  0  0  0  0  0  0  0  0
   -1.8844    1.1647   -0.1358 C   0  0  0  0  0  0  0  0  0  0  0  0
   -2.0851   -0.0595   -0.6011 C   0  0  0  0  0  0  0  0  0  0  0  0
   -0.8543   -0.8525   -0.5763 C   0  0  0  0  0  0  0  0  0  0  0  0
    0.1751    0.0644    0.0240 C   0  0  0  0  0  0  0  0  0  0  0  0
    1.1027   -0.5325    1.0371 C   0  0  0  0  0  0  0  0  0  0  0  0
    1.5955   -0.0108   -0.2774 C   0  0  0  0  0  0  0  0  0  0  0  0
    2.1618   -0.8993   -1.1544 O   0  0  0  0  0  0  0  0  0  0  0  0
   -2.6168    1.9784   -0.0341 H   0  0  0  0  0  0  0  0  0  0  0  0
   -3.0454   -0.4089   -0.9503 H   0  0  0  0  0  0  0  0  0  0  0  0
   -0.9995   -1.6908    0.1273 H   0  0  0  0  0  0  0  0  0  0  0  0
   -0.5567   -1.2671   -1.5556 H   0  0  0  0  0  0  0  0  0  0  0  0
    1.2049    0.0259    1.9636 H   0  0  0  0  0  0  0  0  0  0  0  0
    1.1014   -1.6516    1.1712 H   0  0  0  0  0  0  0  0  0  0  0  0
    2.1643    0.9610   -0.1892 H   0  0  0  0  0  0  0  0  0  0  0  0
    2.9954   -0.5380   -1.5895 H   0  0  0  0  0  0  0  0  0  0  0  0
  1  2  2  0
  2  3  1  0
  3  4  2  0
  4  5  1  0
  5  6  1  0
  6  7  1  0
  7  8  1  0
  8  9  1  0
  6  2  1  0
  8  6  1  0
  3 10  1  0
  4 11  1  0
  5 12  1  0
  5 13  1  0
  7 14  1  0
  7 15  1  0
  8 16  1  0
  9 17  1  0
M  END
