
     RDKit          3D

 15 17  0  0  0  0  0  0  0  0999 V2000
   -0.3986    2.9077    0.2941 O   0  0  0  0  0  0  0  0  0  0  0  0
   -0.1196    1.7144    0.1221 C   0  0  0  0  0  0  0  0  0  0  0  0
    1.1758    1.3585   -0.1387 O   0  0  0  0  0  0  0  0  0  0  0  0
    1.6020    0.0450    0.0354 C   0  0  0  0  0  0  0  0  0  0  0  0
    0.5756   -1.0007   -0.1716 C   0  0  0  0  0  0  0  0  0  0  0  0
   -0.6475   -0.8906   -0.9430 C   0  0  0  0  0  0  0  0  0  0  0  0
   -1.4326    0.2213   -1.0833 O   0  0  0  0  0  0  0  0  0  0  0  0
   -1.1803    0.7039    0.2005 C   0  0  0  0  0  0  0  0  0  0  0  0
   -0.6724   -0.6739    0.5379 C   0  0  0  0  0  0  0  0  0  0  0  0
    1.9636   -0.0405    1.1019 H   0  0  0  0  0  0  0  0  0  0  0  0
    2.5141   -0.1478   -0.5802 H   0  0  0  0  0  0  0  0  0  0  0  0
    0.9515   -2.0329    0.0096 H   0  0  0  0  0  0  0  0  0  0  0  0
   -1.0684   -1.8084   -1.3977 H   0  0  0  0  0  0  0  0  0  0  0  0
   -2.0649    0.9780    0.7937 H   0  0  0  0  0  0  0  0  0  0  0  0
   -1.1983   -1.3343    1.2193 H   0  0  0  0  0  0  0  0  0  0  0  0
  1  2  2  0
  2  3  1  0
  3  4  1  0
  4  5  1  0
  5  6  1  0
  6  7  1  0
  7  8  1  0
  8  9  1  0
  8  2  1  0
  9  5  1  0
  9  6  1  0
  4 10  1  0
  4 11  1  0
  5 12  1  0
  6 13  1  0
  8 14  1  0
  9 15  1  0
M  END
