
     RDKit          3D

 14 15  0  0  0  0  0  0  0  0999 V2000
    2.6707    0.3486    0.5926 O   0  0  0  0  0  0  0  0  0  0  0  0
    1.5153    0.1627    0.0924 C   0  0  0  0  0  0  0  0  0  0  0  0
    0.7557   -1.1073    0.0636 C   0  0  0  0  0  0  0  0  0  0  0  0
   -0.6811   -0.7563    0.0559 C   0  0  0  0  0  0  0  0  0  0  0  0
   -1.2898    0.3473    0.7837 C   0  0  0  0  0  0  0  0  0  0  0  0
   -0.7266    0.5861   -0.6059 C   0  0  0  0  0  0  0  0  0  0  0  0
    0.6526    1.1293   -0.5700 C   0  0  0  0  0  0  0  0  0  0  0  0
    0.9957    2.2362   -1.0371 O   0  0  0  0  0  0  0  0  0  0  0  0
    0.9968   -1.5993   -0.9205 H   0  0  0  0  0  0  0  0  0  0  0  0
    1.0659   -1.8224    0.8433 H   0  0  0  0  0  0  0  0  0  0  0  0
   -1.3610   -1.5695   -0.3162 H   0  0  0  0  0  0  0  0  0  0  0  0
   -2.3881    0.3959    0.8070 H   0  0  0  0  0  0  0  0  0  0  0  0
   -0.8131    0.8532    1.6516 H   0  0  0  0  0  0  0  0  0  0  0  0
   -1.3929    0.7955   -1.4403 H   0  0  0  0  0  0  0  0  0  0  0  0
  1  2  2  0
  2  3  1  0
  3  4  1  0
  4  5  1  0
  5  6  1  0
  6  7  1  0
  7  8  2  0
  7  2  1  0
  6  4  1  0
  3  9  1  0
  3 10  1  0
  4 11  1  0
  5 12  1  0
  5 13  1  0
  6 14  1  0
M  END
