
     RDKit          3D

 14 14  0  0  0  0  0  0  0  0999 V2000
    0.2884   -1.8740   -1.5100 O   0  0  0  0  0  0  0  0  0  0  0  0
    0.7114   -0.9395   -0.7992 C   0  0  0  0  0  0  0  0  0  0  0  0
    2.0146   -0.6482   -0.4318 O   0  0  0  0  0  0  0  0  0  0  0  0
    1.8994    0.4381    0.4978 C   0  0  0  0  0  0  0  0  0  0  0  0
    0.5964    0.3077    1.0262 O   0  0  0  0  0  0  0  0  0  0  0  0
   -0.1208    0.1091   -0.1644 C   0  0  0  0  0  0  0  0  0  0  0  0
   -1.5252   -0.3618    0.1079 C   0  0  0  0  0  0  0  0  0  0  0  0
   -2.2129    0.5787    0.8724 O   0  0  0  0  0  0  0  0  0  0  0  0
    2.6632    0.3767    1.2724 H   0  0  0  0  0  0  0  0  0  0  0  0
    1.9001    1.4054   -0.0534 H   0  0  0  0  0  0  0  0  0  0  0  0
   -0.0930    0.9938   -0.7966 H   0  0  0  0  0  0  0  0  0  0  0  0
   -2.0451   -0.3869   -0.8829 H   0  0  0  0  0  0  0  0  0  0  0  0
   -1.5815   -1.3599    0.5316 H   0  0  0  0  0  0  0  0  0  0  0  0
   -2.4951    1.3609    0.3299 H   0  0  0  0  0  0  0  0  0  0  0  0
  1  2  2  0
  2  3  1  0
  3  4  1  0
  4  5  1  0
  5  6  1  0
  6  7  1  0
  7  8  1  0
  6  2  1  0
  4  9  1  0
  4 10  1  0
  6 11  1  0
  7 12  1  0
  7 13  1  0
  8 14  1  0
M  END
