
     RDKit          3D

 17 19  0  0  0  0  0  0  0  0999 V2000
   -1.9679   -0.1914    1.8500 O   0  0  0  0  0  0  0  0  0  0  0  0
   -1.1894   -0.0535    0.9584 C   0  0  0  0  0  0  0  0  0  0  0  0
   -0.4082    1.0350    0.3317 C   0  0  0  0  0  0  0  0  0  0  0  0
   -0.7024    0.3020   -0.9668 C   0  0  0  0  0  0  0  0  0  0  0  0
   -2.0216    0.5138   -1.3269 O   0  0  0  0  0  0  0  0  0  0  0  0
   -0.5430   -0.9162   -0.0577 C   0  0  0  0  0  0  0  0  0  0  0  0
    0.8848   -0.8910    0.3601 C   0  0  0  0  0  0  0  0  0  0  0  0
    1.9141   -0.0300   -0.2013 C   0  0  0  0  0  0  0  0  0  0  0  0
    0.9908    0.6336    0.7222 C   0  0  0  0  0  0  0  0  0  0  0  0
   -0.7211    2.0438    0.4334 H   0  0  0  0  0  0  0  0  0  0  0  0
    0.0015    0.4075   -1.7802 H   0  0  0  0  0  0  0  0  0  0  0  0
   -2.4902   -0.3628   -1.4770 H   0  0  0  0  0  0  0  0  0  0  0  0
   -1.0150   -1.8209   -0.3555 H   0  0  0  0  0  0  0  0  0  0  0  0
    1.1520   -1.6037    1.1590 H   0  0  0  0  0  0  0  0  0  0  0  0
    2.9448   -0.1819    0.2028 H   0  0  0  0  0  0  0  0  0  0  0  0
    1.9562    0.3207   -1.2500 H   0  0  0  0  0  0  0  0  0  0  0  0
    1.2149    0.7949    1.7853 H   0  0  0  0  0  0  0  0  0  0  0  0
  1  2  2  0
  2  3  1  0
  3  4  1  0
  4  5  1  0
  4  6  1  0
  6  7  1  0
  7  8  1  0
  8  9  1  0
  6  2  1  0
  9  7  1  0
  9  3  1  0
  3 10  1  0
  4 11  1  0
  5 12  1  0
  6 13  1  0
  7 14  1  0
  8 15  1  0
  8 16  1  0
  9 17  1  0
M  END
