
     RDKit          3D

 19 20  0  0  0  0  0  0  0  0999 V2000
   -1.9797    2.0179   -0.6130 O   0  0  0  0  0  0  0  0  0  0  0  0
   -1.2100    1.0868   -0.4485 C   0  0  0  0  0  0  0  0  0  0  0  0
   -1.6603   -0.2892   -0.1699 C   0  0  0  0  0  0  0  0  0  0  0  0
   -0.5759   -1.1001    0.4744 C   0  0  0  0  0  0  0  0  0  0  0  0
    0.5876   -1.1487   -0.5241 C   0  0  0  0  0  0  0  0  0  0  0  0
    1.0126    0.1833    0.0407 C   0  0  0  0  0  0  0  0  0  0  0  0
    2.3541    0.3625    0.2270 O   0  0  0  0  0  0  0  0  0  0  0  0
    0.2569    1.3363   -0.5298 C   0  0  0  0  0  0  0  0  0  0  0  0
    0.3396   -0.2470    1.3509 C   0  0  0  0  0  0  0  0  0  0  0  0
   -2.5767   -0.2320    0.4623 H   0  0  0  0  0  0  0  0  0  0  0  0
   -1.9848   -0.7343   -1.1307 H   0  0  0  0  0  0  0  0  0  0  0  0
   -0.8710   -2.0569    0.8908 H   0  0  0  0  0  0  0  0  0  0  0  0
    1.3066   -1.9281   -0.2163 H   0  0  0  0  0  0  0  0  0  0  0  0
    0.2183   -1.1638   -1.5440 H   0  0  0  0  0  0  0  0  0  0  0  0
    2.8643    0.4724   -0.6040 H   0  0  0  0  0  0  0  0  0  0  0  0
    0.5928    1.5240   -1.5696 H   0  0  0  0  0  0  0  0  0  0  0  0
    0.4591    2.2286    0.1014 H   0  0  0  0  0  0  0  0  0  0  0  0
    1.0329   -0.8761    1.9130 H   0  0  0  0  0  0  0  0  0  0  0  0
   -0.1662    0.5646    1.8894 H   0  0  0  0  0  0  0  0  0  0  0  0
  1  2  2  0
  2  3  1  0
  3  4  1  0
  4  5  1  0
  5  6  1  0
  6  7  1  0
  6  8  1  0
  6  9  1  0
  8  2  1  0
  9  4  1  0
  3 10  1  0
  3 11  1  0
  4 12  1  0
  5 13  1  0
  5 14  1  0
  7 15  1  0
  8 16  1  0
  8 17  1  0
  9 18  1  0
  9 19  1  0
M  END
