
     RDKit          3D

 19 20  0  0  0  0  0  0  0  0999 V2000
   -3.2872   -0.5570   -1.1586 O   0  0  0  0  0  0  0  0  0  0  0  0
   -2.2851   -0.2223   -0.5982 C   0  0  0  0  0  0  0  0  0  0  0  0
   -1.0918    0.6258   -0.5458 C   0  0  0  0  0  0  0  0  0  0  0  0
   -1.4396    0.8024    0.9080 C   0  0  0  0  0  0  0  0  0  0  0  0
   -1.6204   -0.6481    0.6601 C   0  0  0  0  0  0  0  0  0  0  0  0
   -0.3588   -0.5974   -0.1577 C   0  0  0  0  0  0  0  0  0  0  0  0
    0.9365   -0.5124    0.5526 C   0  0  0  0  0  0  0  0  0  0  0  0
    2.0031    0.2322   -0.2205 C   0  0  0  0  0  0  0  0  0  0  0  0
    3.1550    0.2224    0.5831 O   0  0  0  0  0  0  0  0  0  0  0  0
   -0.8245    1.3520   -1.1864 H   0  0  0  0  0  0  0  0  0  0  0  0
   -2.3672    1.4123    0.9808 H   0  0  0  0  0  0  0  0  0  0  0  0
   -0.6570    1.0399    1.6114 H   0  0  0  0  0  0  0  0  0  0  0  0
   -1.9163   -1.3747    1.2780 H   0  0  0  0  0  0  0  0  0  0  0  0
   -0.3939   -1.3478   -1.0030 H   0  0  0  0  0  0  0  0  0  0  0  0
    0.8863   -0.2180    1.6166 H   0  0  0  0  0  0  0  0  0  0  0  0
    1.3347   -1.5779    0.5994 H   0  0  0  0  0  0  0  0  0  0  0  0
    2.2639   -0.3478   -1.1304 H   0  0  0  0  0  0  0  0  0  0  0  0
    1.7048    1.2355   -0.5175 H   0  0  0  0  0  0  0  0  0  0  0  0
    3.9576    0.4808    0.0832 H   0  0  0  0  0  0  0  0  0  0  0  0
  1  2  2  0
  2  3  1  0
  3  4  1  0
  4  5  1  0
  5  6  1  0
  6  7  1  0
  7  8  1  0
  8  9  1  0
  5  2  1  0
  6  3  1  0
  3 10  1  0
  4 11  1  0
  4 12  1  0
  5 13  1  0
  6 14  1  0
  7 15  1  0
  7 16  1  0
  8 17  1  0
  8 18  1  0
  9 19  1  0
M  END
