
     RDKit          3D

 13 14  0  0  0  0  0  0  0  0999 V2000
   -0.0727    2.5574   -0.2881 O   0  0  0  0  0  0  0  0  0  0  0  0
    0.1081    1.3202   -0.2000 C   0  0  0  0  0  0  0  0  0  0  0  0
    1.3796    0.6237   -0.0638 C   0  0  0  0  0  0  0  0  0  0  0  0
    1.1935   -0.6827   -0.2361 C   0  0  0  0  0  0  0  0  0  0  0  0
   -0.2193   -0.9793   -0.5034 C   0  0  0  0  0  0  0  0  0  0  0  0
   -0.9330   -1.6113    0.5255 O   0  0  0  0  0  0  0  0  0  0  0  0
   -1.1635   -0.3637    1.0879 C   0  0  0  0  0  0  0  0  0  0  0  0
   -1.4427    0.0033    2.2549 O   0  0  0  0  0  0  0  0  0  0  0  0
   -0.9483    0.3109   -0.2174 C   0  0  0  0  0  0  0  0  0  0  0  0
    2.3299    1.1066    0.1466 H   0  0  0  0  0  0  0  0  0  0  0  0
    1.9964   -1.4017   -0.1802 H   0  0  0  0  0  0  0  0  0  0  0  0
   -0.3848   -1.3956   -1.5167 H   0  0  0  0  0  0  0  0  0  0  0  0
   -1.8433    0.5123   -0.8093 H   0  0  0  0  0  0  0  0  0  0  0  0
  1  2  2  0
  2  3  1  0
  3  4  2  0
  4  5  1  0
  5  6  1  0
  6  7  1  0
  7  8  2  0
  7  9  1  0
  9  2  1  0
  9  5  1  0
  3 10  1  0
  4 11  1  0
  5 12  1  0
  9 13  1  0
M  END
