
     RDKit          3D

 17 19  0  0  0  0  0  0  0  0999 V2000
    3.2765   -0.1625    0.2750 O   0  0  0  0  0  0  0  0  0  0  0  0
    2.0606   -0.0759    0.2816 C   0  0  0  0  0  0  0  0  0  0  0  0
    1.1361   -0.9803    1.0146 C   0  0  0  0  0  0  0  0  0  0  0  0
   -0.0621   -0.8342    0.6118 C   0  0  0  0  0  0  0  0  0  0  0  0
   -1.4943   -0.8416    0.3267 C   0  0  0  0  0  0  0  0  0  0  0  0
   -1.4639    0.7743    0.2604 C   0  0  0  0  0  0  0  0  0  0  0  0
   -0.2330    1.0695   -0.5617 C   0  0  0  0  0  0  0  0  0  0  0  0
    1.1688    0.9034   -0.4004 C   0  0  0  0  0  0  0  0  0  0  0  0
    0.2483   -0.2397   -0.8591 C   0  0  0  0  0  0  0  0  0  0  0  0
    1.4673   -1.6705    1.7937 H   0  0  0  0  0  0  0  0  0  0  0  0
   -1.7937   -1.2222   -0.6314 H   0  0  0  0  0  0  0  0  0  0  0  0
   -2.1343   -1.0487    1.1880 H   0  0  0  0  0  0  0  0  0  0  0  0
   -1.4257    1.1164    1.2830 H   0  0  0  0  0  0  0  0  0  0  0  0
   -2.3948    0.9970   -0.2437 H   0  0  0  0  0  0  0  0  0  0  0  0
   -0.5447    1.6937   -1.4637 H   0  0  0  0  0  0  0  0  0  0  0  0
    1.7739    1.4091   -1.2498 H   0  0  0  0  0  0  0  0  0  0  0  0
    0.4151   -0.8879   -1.6249 H   0  0  0  0  0  0  0  0  0  0  0  0
  1  2  2  0
  2  3  1  0
  3  4  2  0
  4  5  1  0
  5  6  1  0
  6  7  1  0
  7  8  1  0
  8  9  1  0
  8  2  1  0
  9  4  1  0
  9  7  1  0
  3 10  1  0
  5 11  1  0
  5 12  1  0
  6 13  1  0
  6 14  1  0
  7 15  1  0
  8 16  1  0
  9 17  1  0
M  END
