
     RDKit          3D

 17 17  0  0  0  0  0  0  0  0999 V2000
   -0.1654    1.2922    2.0511 O   0  0  0  0  0  0  0  0  0  0  0  0
   -0.0002    0.6898    1.0127 C   0  0  0  0  0  0  0  0  0  0  0  0
   -1.1349    0.6350    0.0577 C   0  0  0  0  0  0  0  0  0  0  0  0
   -0.8109    1.2942   -1.1450 O   0  0  0  0  0  0  0  0  0  0  0  0
   -1.4148   -0.8344   -0.2111 C   0  0  0  0  0  0  0  0  0  0  0  0
   -0.3458   -1.6486    0.0671 O   0  0  0  0  0  0  0  0  0  0  0  0
    0.8768   -1.1587   -0.3174 C   0  0  0  0  0  0  0  0  0  0  0  0
    1.2388   -0.0080    0.5936 C   0  0  0  0  0  0  0  0  0  0  0  0
    2.1610    0.8552    0.0122 O   0  0  0  0  0  0  0  0  0  0  0  0
   -2.0400    1.1426    0.4456 H   0  0  0  0  0  0  0  0  0  0  0  0
   -0.4826    2.1859   -0.8769 H   0  0  0  0  0  0  0  0  0  0  0  0
   -2.2338   -1.1142    0.5145 H   0  0  0  0  0  0  0  0  0  0  0  0
   -1.8375   -0.9986   -1.2093 H   0  0  0  0  0  0  0  0  0  0  0  0
    0.9031   -0.8923   -1.3828 H   0  0  0  0  0  0  0  0  0  0  0  0
    1.6235   -1.9723   -0.1769 H   0  0  0  0  0  0  0  0  0  0  0  0
    1.7263   -0.4371    1.5000 H   0  0  0  0  0  0  0  0  0  0  0  0
    1.9363    0.9692   -0.9351 H   0  0  0  0  0  0  0  0  0  0  0  0
  1  2  2  0
  2  3  1  0
  3  4  1  0
  3  5  1  0
  5  6  1  0
  6  7  1  0
  7  8  1  0
  8  9  1  0
  8  2  1  0
  3 10  1  0
  4 11  1  0
  5 12  1  0
  5 13  1  0
  7 14  1  0
  7 15  1  0
  8 16  1  0
  9 17  1  0
M  END
