
     RDKit          3D

 17 18  0  0  0  0  0  0  0  0999 V2000
    1.9017    1.2081   -1.3961 O   0  0  0  0  0  0  0  0  0  0  0  0
    1.0927    0.6259   -0.7270 C   0  0  0  0  0  0  0  0  0  0  0  0
    1.3214    0.0546    0.6228 C   0  0  0  0  0  0  0  0  0  0  0  0
   -0.0916   -0.3225    1.0058 C   0  0  0  0  0  0  0  0  0  0  0  0
   -0.8982    0.9330    0.9608 C   0  0  0  0  0  0  0  0  0  0  0  0
   -1.1528    1.2726   -0.3079 C   0  0  0  0  0  0  0  0  0  0  0  0
   -0.3086    0.3598   -1.1209 C   0  0  0  0  0  0  0  0  0  0  0  0
   -0.5362   -0.9458   -0.3310 C   0  0  0  0  0  0  0  0  0  0  0  0
    0.3167   -1.9327   -0.7463 O   0  0  0  0  0  0  0  0  0  0  0  0
    1.9410   -0.8858    0.5679 H   0  0  0  0  0  0  0  0  0  0  0  0
    1.7613    0.7401    1.3373 H   0  0  0  0  0  0  0  0  0  0  0  0
   -0.2176   -0.9453    1.8530 H   0  0  0  0  0  0  0  0  0  0  0  0
   -1.2410    1.5059    1.8113 H   0  0  0  0  0  0  0  0  0  0  0  0
   -1.8101    2.0276   -0.7189 H   0  0  0  0  0  0  0  0  0  0  0  0
   -0.5253    0.2909   -2.1547 H   0  0  0  0  0  0  0  0  0  0  0  0
   -1.5919   -1.2081   -0.2948 H   0  0  0  0  0  0  0  0  0  0  0  0
    0.0384   -2.7784   -0.3614 H   0  0  0  0  0  0  0  0  0  0  0  0
  1  2  2  0
  2  3  1  0
  3  4  1  0
  4  5  1  0
  5  6  2  0
  6  7  1  0
  7  8  1  0
  8  9  1  0
  7  2  1  0
  8  4  1  0
  3 10  1  0
  3 11  1  0
  4 12  1  0
  5 13  1  0
  6 14  1  0
  7 15  1  0
  8 16  1  0
  9 17  1  0
M  END
