
     RDKit          3D

 17 18  0  0  0  0  0  0  0  0999 V2000
    1.3852   -2.1710   -0.6715 O   0  0  0  0  0  0  0  0  0  0  0  0
    0.9706   -1.0537   -0.5509 C   0  0  0  0  0  0  0  0  0  0  0  0
    1.5804    0.1296    0.1441 C   0  0  0  0  0  0  0  0  0  0  0  0
    0.4483    0.9819    0.6156 C   0  0  0  0  0  0  0  0  0  0  0  0
   -0.7466    0.4368   -0.0596 C   0  0  0  0  0  0  0  0  0  0  0  0
   -1.7627    1.2733   -0.4026 O   0  0  0  0  0  0  0  0  0  0  0  0
   -1.2072   -0.8761    0.5865 C   0  0  0  0  0  0  0  0  0  0  0  0
   -1.4373   -1.3322   -0.7292 O   0  0  0  0  0  0  0  0  0  0  0  0
   -0.3180   -0.5584   -1.0952 C   0  0  0  0  0  0  0  0  0  0  0  0
    2.2420   -0.2112    0.9644 H   0  0  0  0  0  0  0  0  0  0  0  0
    2.1549    0.7208   -0.6155 H   0  0  0  0  0  0  0  0  0  0  0  0
    0.3517    0.8279    1.7236 H   0  0  0  0  0  0  0  0  0  0  0  0
    0.6148    2.0694    0.4717 H   0  0  0  0  0  0  0  0  0  0  0  0
   -1.5159    2.2144   -0.4472 H   0  0  0  0  0  0  0  0  0  0  0  0
   -0.3634   -1.4584    1.0024 H   0  0  0  0  0  0  0  0  0  0  0  0
   -2.0990   -0.7649    1.2002 H   0  0  0  0  0  0  0  0  0  0  0  0
   -0.2978   -0.2280   -2.1367 H   0  0  0  0  0  0  0  0  0  0  0  0
  1  2  2  0
  2  3  1  0
  3  4  1  0
  4  5  1  0
  5  6  1  0
  5  7  1  0
  7  8  1  0
  8  9  1  0
  9  2  1  0
  9  5  1  0
  3 10  1  0
  3 11  1  0
  4 12  1  0
  4 13  1  0
  6 14  1  0
  7 15  1  0
  7 16  1  0
  9 17  1  0
M  END
