
     RDKit          3D

 19 21  0  0  0  0  0  0  0  0999 V2000
   -1.4693   -1.9865    1.4263 O   0  0  0  0  0  0  0  0  0  0  0  0
   -1.1490   -1.0850    0.6875 C   0  0  0  0  0  0  0  0  0  0  0  0
   -1.8416    0.2297    0.6677 C   0  0  0  0  0  0  0  0  0  0  0  0
   -0.9422    1.1419   -0.1325 C   0  0  0  0  0  0  0  0  0  0  0  0
   -0.0995    0.2686   -0.9839 C   0  0  0  0  0  0  0  0  0  0  0  0
    1.3778    0.3417   -0.8121 C   0  0  0  0  0  0  0  0  0  0  0  0
    1.9044    0.4033    0.5534 C   0  0  0  0  0  0  0  0  0  0  0  0
    1.3159   -0.8834    0.1573 C   0  0  0  0  0  0  0  0  0  0  0  0
   -0.0753   -1.0748   -0.2967 C   0  0  0  0  0  0  0  0  0  0  0  0
   -1.9848    0.5451    1.7011 H   0  0  0  0  0  0  0  0  0  0  0  0
   -2.8364    0.1596    0.1464 H   0  0  0  0  0  0  0  0  0  0  0  0
   -0.3924    1.7689    0.5853 H   0  0  0  0  0  0  0  0  0  0  0  0
   -1.5991    1.8390   -0.7098 H   0  0  0  0  0  0  0  0  0  0  0  0
   -0.4487    0.2440   -2.0466 H   0  0  0  0  0  0  0  0  0  0  0  0
    2.0118    0.1783   -1.7070 H   0  0  0  0  0  0  0  0  0  0  0  0
    1.4039    1.0861    1.2784 H   0  0  0  0  0  0  0  0  0  0  0  0
    3.0081    0.4265    0.6579 H   0  0  0  0  0  0  0  0  0  0  0  0
    2.0135   -1.7226   -0.0978 H   0  0  0  0  0  0  0  0  0  0  0  0
   -0.1973   -1.8804   -1.0748 H   0  0  0  0  0  0  0  0  0  0  0  0
  1  2  2  0
  2  3  1  0
  3  4  1  0
  4  5  1  0
  5  6  1  0
  6  7  1  0
  7  8  1  0
  8  9  1  0
  9  2  1  0
  9  5  1  0
  8  6  1  0
  3 10  1  0
  3 11  1  0
  4 12  1  0
  4 13  1  0
  5 14  1  0
  6 15  1  0
  7 16  1  0
  7 17  1  0
  8 18  1  0
  9 19  1  0
M  END
