
     RDKit          3D

 17 17  0  0  0  0  0  0  0  0999 V2000
    3.0235    0.5676   -0.1246 O   0  0  0  0  0  0  0  0  0  0  0  0
    1.7857    0.5921   -0.2340 C   0  0  0  0  0  0  0  0  0  0  0  0
    0.9006    1.7466   -0.1393 C   0  0  0  0  0  0  0  0  0  0  0  0
   -0.3228    1.3570    0.1702 C   0  0  0  0  0  0  0  0  0  0  0  0
   -0.3393   -0.0877    0.3053 C   0  0  0  0  0  0  0  0  0  0  0  0
   -1.6128   -0.7382   -0.1789 C   0  0  0  0  0  0  0  0  0  0  0  0
   -2.6654   -0.2397    0.5538 O   0  0  0  0  0  0  0  0  0  0  0  0
    0.8611   -0.5373   -0.4905 C   0  0  0  0  0  0  0  0  0  0  0  0
    1.3584   -1.7567   -0.0762 O   0  0  0  0  0  0  0  0  0  0  0  0
    1.2561    2.7772   -0.3109 H   0  0  0  0  0  0  0  0  0  0  0  0
   -1.1503    2.0747    0.2904 H   0  0  0  0  0  0  0  0  0  0  0  0
   -0.1499   -0.4171    1.3559 H   0  0  0  0  0  0  0  0  0  0  0  0
   -1.5207   -1.8290    0.0950 H   0  0  0  0  0  0  0  0  0  0  0  0
   -1.7198   -0.6435   -1.2581 H   0  0  0  0  0  0  0  0  0  0  0  0
   -2.6550   -0.5768    1.4671 H   0  0  0  0  0  0  0  0  0  0  0  0
    0.6451   -0.5366   -1.5978 H   0  0  0  0  0  0  0  0  0  0  0  0
    2.3055   -1.7528    0.1724 H   0  0  0  0  0  0  0  0  0  0  0  0
  1  2  2  0
  2  3  1  0
  3  4  2  0
  4  5  1  0
  5  6  1  0
  6  7  1  0
  5  8  1  0
  8  9  1  0
  8  2  1  0
  3 10  1  0
  4 11  1  0
  5 12  1  0
  6 13  1  0
  6 14  1  0
  7 15  1  0
  8 16  1  0
  9 17  1  0
M  END
