
     RDKit          3D

 17 18  0  0  0  0  0  0  0  0999 V2000
    2.0853    0.9524   -1.6432 O   0  0  0  0  0  0  0  0  0  0  0  0
    1.4805    0.5521   -0.6923 C   0  0  0  0  0  0  0  0  0  0  0  0
    1.3281   -0.6843    0.0625 C   0  0  0  0  0  0  0  0  0  0  0  0
    0.0876   -1.4691   -0.3208 C   0  0  0  0  0  0  0  0  0  0  0  0
   -1.0831   -0.7564    0.3260 C   0  0  0  0  0  0  0  0  0  0  0  0
   -0.9156    0.7017   -0.0504 C   0  0  0  0  0  0  0  0  0  0  0  0
   -1.7895    1.5097    0.6557 O   0  0  0  0  0  0  0  0  0  0  0  0
    0.5185    1.0667    0.2977 C   0  0  0  0  0  0  0  0  0  0  0  0
    1.0640    0.1265    1.1939 O   0  0  0  0  0  0  0  0  0  0  0  0
    2.1871   -1.3496    0.1659 H   0  0  0  0  0  0  0  0  0  0  0  0
    0.1649   -2.4717    0.0994 H   0  0  0  0  0  0  0  0  0  0  0  0
   -0.0798   -1.4504   -1.4211 H   0  0  0  0  0  0  0  0  0  0  0  0
   -2.0472   -1.1691   -0.0224 H   0  0  0  0  0  0  0  0  0  0  0  0
   -1.0046   -0.8812    1.4439 H   0  0  0  0  0  0  0  0  0  0  0  0
   -1.0555    0.7649   -1.1529 H   0  0  0  0  0  0  0  0  0  0  0  0
   -1.5474    2.4475    0.4431 H   0  0  0  0  0  0  0  0  0  0  0  0
    0.6067    2.1102    0.5969 H   0  0  0  0  0  0  0  0  0  0  0  0
  1  2  2  0
  2  3  1  0
  3  4  1  0
  4  5  1  0
  5  6  1  0
  6  7  1  0
  6  8  1  0
  8  9  1  0
  8  2  1  0
  9  3  1  0
  3 10  1  0
  4 11  1  0
  4 12  1  0
  5 13  1  0
  5 14  1  0
  6 15  1  0
  7 16  1  0
  8 17  1  0
M  END
