
     RDKit          3D

 19 20  0  0  0  0  0  0  0  0999 V2000
   -0.0118    2.8561   -0.6141 O   0  0  0  0  0  0  0  0  0  0  0  0
   -0.3422    1.6594   -0.4336 C   0  0  0  0  0  0  0  0  0  0  0  0
   -1.6127    1.4069    0.0273 O   0  0  0  0  0  0  0  0  0  0  0  0
   -2.0875    0.0913    0.0180 C   0  0  0  0  0  0  0  0  0  0  0  0
   -1.0633   -0.9535    0.2685 C   0  0  0  0  0  0  0  0  0  0  0  0
    0.2320   -0.7689   -0.4323 C   0  0  0  0  0  0  0  0  0  0  0  0
    1.4685   -0.9178    0.4275 C   0  0  0  0  0  0  0  0  0  0  0  0
    1.6640    0.5738    0.4153 C   0  0  0  0  0  0  0  0  0  0  0  0
    0.6368    0.6271   -0.7230 C   0  0  0  0  0  0  0  0  0  0  0  0
   -2.6345   -0.1094   -0.9456 H   0  0  0  0  0  0  0  0  0  0  0  0
   -2.8574    0.0156    0.8408 H   0  0  0  0  0  0  0  0  0  0  0  0
   -1.5172   -1.9429   -0.0298 H   0  0  0  0  0  0  0  0  0  0  0  0
   -0.8659   -1.0577    1.3610 H   0  0  0  0  0  0  0  0  0  0  0  0
    0.3062   -1.4182   -1.3284 H   0  0  0  0  0  0  0  0  0  0  0  0
    2.3214   -1.4176   -0.0470 H   0  0  0  0  0  0  0  0  0  0  0  0
    1.2581   -1.3354    1.4302 H   0  0  0  0  0  0  0  0  0  0  0  0
    2.6563    0.9215    0.1006 H   0  0  0  0  0  0  0  0  0  0  0  0
    1.2829    1.0127    1.3677 H   0  0  0  0  0  0  0  0  0  0  0  0
    1.1663    0.7570   -1.7029 H   0  0  0  0  0  0  0  0  0  0  0  0
  1  2  2  0
  2  3  1  0
  3  4  1  0
  4  5  1  0
  5  6  1  0
  6  7  1  0
  7  8  1  0
  8  9  1  0
  9  2  1  0
  9  6  1  0
  4 10  1  0
  4 11  1  0
  5 12  1  0
  5 13  1  0
  6 14  1  0
  7 15  1  0
  7 16  1  0
  8 17  1  0
  8 18  1  0
  9 19  1  0
M  END
