
     RDKit          3D

 16 17  0  0  0  0  0  0  0  0999 V2000
    2.0299   -1.7221   -1.1019 O   0  0  0  0  0  0  0  0  0  0  0  0
    1.2109   -0.9697   -0.5581 C   0  0  0  0  0  0  0  0  0  0  0  0
    1.7150    0.3004    0.0222 C   0  0  0  0  0  0  0  0  0  0  0  0
    0.8304    1.2687    0.2289 C   0  0  0  0  0  0  0  0  0  0  0  0
   -0.5265    0.9645   -0.1403 C   0  0  0  0  0  0  0  0  0  0  0  0
   -1.6953    0.6413    0.5800 C   0  0  0  0  0  0  0  0  0  0  0  0
   -0.7841   -0.4283    0.5529 C   0  0  0  0  0  0  0  0  0  0  0  0
   -0.2341   -1.3318   -0.4906 C   0  0  0  0  0  0  0  0  0  0  0  0
    2.7679    0.4273    0.2665 H   0  0  0  0  0  0  0  0  0  0  0  0
    1.1246    2.1981    0.6400 H   0  0  0  0  0  0  0  0  0  0  0  0
   -0.6433    0.9856   -1.2671 H   0  0  0  0  0  0  0  0  0  0  0  0
   -2.6662    0.5529    0.0362 H   0  0  0  0  0  0  0  0  0  0  0  0
   -1.8826    1.1674    1.5552 H   0  0  0  0  0  0  0  0  0  0  0  0
   -0.1956   -0.6070    1.5086 H   0  0  0  0  0  0  0  0  0  0  0  0
   -0.6469   -1.0463   -1.5033 H   0  0  0  0  0  0  0  0  0  0  0  0
   -0.4040   -2.4011   -0.3294 H   0  0  0  0  0  0  0  0  0  0  0  0
  1  2  2  0
  2  3  1  0
  3  4  2  0
  4  5  1  0
  5  6  1  0
  6  7  1  0
  7  8  1  0
  8  2  1  0
  7  5  1  0
  3  9  1  0
  4 10  1  0
  5 11  1  0
  6 12  1  0
  6 13  1  0
  7 14  1  0
  8 15  1  0
  8 16  1  0
M  END
