
     RDKit          3D

 17 17  0  0  0  0  0  0  0  0999 V2000
    0.6704    0.0574   -2.3048 O   0  0  0  0  0  0  0  0  0  0  0  0
    0.6123    0.2422   -1.1195 C   0  0  0  0  0  0  0  0  0  0  0  0
    1.5566    0.6107   -0.0362 C   0  0  0  0  0  0  0  0  0  0  0  0
    2.8262    0.1013   -0.1304 O   0  0  0  0  0  0  0  0  0  0  0  0
    0.6261   -0.1601    0.9100 C   0  0  0  0  0  0  0  0  0  0  0  0
   -0.4532    0.1999   -0.0887 C   0  0  0  0  0  0  0  0  0  0  0  0
   -0.9656    1.4790    0.1035 O   0  0  0  0  0  0  0  0  0  0  0  0
   -1.5050   -0.8534   -0.2895 C   0  0  0  0  0  0  0  0  0  0  0  0
   -2.3111   -0.8837    0.8330 O   0  0  0  0  0  0  0  0  0  0  0  0
    1.5105    1.6894    0.2616 H   0  0  0  0  0  0  0  0  0  0  0  0
    2.7527   -0.8920   -0.0572 H   0  0  0  0  0  0  0  0  0  0  0  0
    0.5212    0.3022    1.9038 H   0  0  0  0  0  0  0  0  0  0  0  0
    0.9103   -1.2183    0.8751 H   0  0  0  0  0  0  0  0  0  0  0  0
   -0.6730    2.1096   -0.5970 H   0  0  0  0  0  0  0  0  0  0  0  0
   -0.9740   -1.8347   -0.3985 H   0  0  0  0  0  0  0  0  0  0  0  0
   -2.0763   -0.7173   -1.2256 H   0  0  0  0  0  0  0  0  0  0  0  0
   -3.0281   -0.2323    0.8349 H   0  0  0  0  0  0  0  0  0  0  0  0
  1  2  2  0
  2  3  1  0
  3  4  1  0
  3  5  1  0
  5  6  1  0
  6  7  1  0
  6  8  1  0
  8  9  1  0
  6  2  1  0
  3 10  1  0
  4 11  1  0
  5 12  1  0
  5 13  1  0
  7 14  1  0
  8 15  1  0
  8 16  1  0
  9 17  1  0
M  END
