
     RDKit          3D

 17 18  0  0  0  0  0  0  0  0999 V2000
    2.2718    1.2931    0.9371 O   0  0  0  0  0  0  0  0  0  0  0  0
    1.2379    0.7813    0.5905 C   0  0  0  0  0  0  0  0  0  0  0  0
    0.0454    1.5083    0.0997 C   0  0  0  0  0  0  0  0  0  0  0  0
   -0.5460    0.5464   -0.8905 C   0  0  0  0  0  0  0  0  0  0  0  0
   -1.5116   -0.4266   -0.3508 C   0  0  0  0  0  0  0  0  0  0  0  0
   -2.0746   -0.1243    0.8932 O   0  0  0  0  0  0  0  0  0  0  0  0
   -0.1193   -0.8381   -0.4960 C   0  0  0  0  0  0  0  0  0  0  0  0
    0.9090   -0.6608    0.5685 C   0  0  0  0  0  0  0  0  0  0  0  0
    2.0760   -1.3399    0.1944 O   0  0  0  0  0  0  0  0  0  0  0  0
    0.3204    2.4792   -0.3484 H   0  0  0  0  0  0  0  0  0  0  0  0
   -0.6248    1.6464    0.9980 H   0  0  0  0  0  0  0  0  0  0  0  0
   -0.4422    0.7626   -1.9669 H   0  0  0  0  0  0  0  0  0  0  0  0
   -2.2489   -0.8434   -1.0623 H   0  0  0  0  0  0  0  0  0  0  0  0
   -2.1738   -0.9897    1.3621 H   0  0  0  0  0  0  0  0  0  0  0  0
    0.1120   -1.5814   -1.3098 H   0  0  0  0  0  0  0  0  0  0  0  0
    0.5968   -1.0291    1.5686 H   0  0  0  0  0  0  0  0  0  0  0  0
    2.1721   -1.1841   -0.7874 H   0  0  0  0  0  0  0  0  0  0  0  0
  1  2  2  0
  2  3  1  0
  3  4  1  0
  4  5  1  0
  5  6  1  0
  5  7  1  0
  7  8  1  0
  8  9  1  0
  8  2  1  0
  7  4  1  0
  3 10  1  0
  3 11  1  0
  4 12  1  0
  5 13  1  0
  6 14  1  0
  7 15  1  0
  8 16  1  0
  9 17  1  0
M  END
