
     RDKit          3D

 15 15  0  0  0  0  0  0  0  0999 V2000
   -1.7566    2.2076   -0.4762 O   0  0  0  0  0  0  0  0  0  0  0  0
   -1.0075    1.2908   -0.0736 C   0  0  0  0  0  0  0  0  0  0  0  0
   -1.3352   -0.1545   -0.1056 C   0  0  0  0  0  0  0  0  0  0  0  0
    0.0300   -0.7536   -0.3798 C   0  0  0  0  0  0  0  0  0  0  0  0
    0.0606   -2.1132   -0.2360 O   0  0  0  0  0  0  0  0  0  0  0  0
    0.8422   -0.0305    0.7049 C   0  0  0  0  0  0  0  0  0  0  0  0
    2.1963   -0.1258    0.4832 O   0  0  0  0  0  0  0  0  0  0  0  0
    0.3248    1.3624    0.5093 C   0  0  0  0  0  0  0  0  0  0  0  0
    0.9545    2.4047    0.8067 O   0  0  0  0  0  0  0  0  0  0  0  0
   -1.6230   -0.5055    0.9167 H   0  0  0  0  0  0  0  0  0  0  0  0
   -2.0812   -0.4153   -0.8678 H   0  0  0  0  0  0  0  0  0  0  0  0
    0.3883   -0.4024   -1.3837 H   0  0  0  0  0  0  0  0  0  0  0  0
    0.1153   -2.5517   -1.1369 H   0  0  0  0  0  0  0  0  0  0  0  0
    0.5193   -0.3980    1.6834 H   0  0  0  0  0  0  0  0  0  0  0  0
    2.3722    0.1848   -0.4447 H   0  0  0  0  0  0  0  0  0  0  0  0
  1  2  2  0
  2  3  1  0
  3  4  1  0
  4  5  1  0
  4  6  1  0
  6  7  1  0
  6  8  1  0
  8  9  2  0
  8  2  1  0
  3 10  1  0
  3 11  1  0
  4 12  1  0
  5 13  1  0
  6 14  1  0
  7 15  1  0
M  END
