
     RDKit          3D

 17 19  0  0  0  0  0  0  0  0999 V2000
    0.5690   -0.1182   -2.2403 O   0  0  0  0  0  0  0  0  0  0  0  0
    0.9609   -0.1565   -1.0847 C   0  0  0  0  0  0  0  0  0  0  0  0
    2.1197    0.3108   -0.3020 C   0  0  0  0  0  0  0  0  0  0  0  0
    2.8339   -0.7550    0.4274 O   0  0  0  0  0  0  0  0  0  0  0  0
    1.6520   -0.1644    0.8804 C   0  0  0  0  0  0  0  0  0  0  0  0
    0.4171   -0.7378    0.1900 C   0  0  0  0  0  0  0  0  0  0  0  0
   -0.8771   -0.1497    0.6427 C   0  0  0  0  0  0  0  0  0  0  0  0
   -2.0209   -0.3125   -0.3588 C   0  0  0  0  0  0  0  0  0  0  0  0
   -1.4974    1.0269    0.0368 C   0  0  0  0  0  0  0  0  0  0  0  0
    2.7744    1.1031   -0.6395 H   0  0  0  0  0  0  0  0  0  0  0  0
    1.5712    0.1964    1.9029 H   0  0  0  0  0  0  0  0  0  0  0  0
    0.4175   -1.8273    0.1857 H   0  0  0  0  0  0  0  0  0  0  0  0
   -1.1229   -0.3685    1.7099 H   0  0  0  0  0  0  0  0  0  0  0  0
   -1.7590   -0.6525   -1.3933 H   0  0  0  0  0  0  0  0  0  0  0  0
   -2.9638   -0.7113    0.0489 H   0  0  0  0  0  0  0  0  0  0  0  0
   -2.1147    1.6834    0.7141 H   0  0  0  0  0  0  0  0  0  0  0  0
   -0.9598    1.6333   -0.7202 H   0  0  0  0  0  0  0  0  0  0  0  0
  1  2  2  0
  2  3  1  0
  3  4  1  0
  4  5  1  0
  5  6  1  0
  6  7  1  0
  7  8  1  0
  8  9  1  0
  6  2  1  0
  9  7  1  0
  5  3  1  0
  3 10  1  0
  5 11  1  0
  6 12  1  0
  7 13  1  0
  8 14  1  0
  8 15  1  0
  9 16  1  0
  9 17  1  0
M  END
