
     RDKit          3D

 17 19  0  0  0  0  0  0  0  0999 V2000
    2.2716    1.6613    0.4207 O   0  0  0  0  0  0  0  0  0  0  0  0
    1.2890    1.0474    0.2055 C   0  0  0  0  0  0  0  0  0  0  0  0
    0.1538    0.5512    1.0772 C   0  0  0  0  0  0  0  0  0  0  0  0
    0.4609   -0.9412    0.8488 C   0  0  0  0  0  0  0  0  0  0  0  0
    0.1885   -0.8748   -0.6688 C   0  0  0  0  0  0  0  0  0  0  0  0
   -1.3172   -0.5756   -0.4904 C   0  0  0  0  0  0  0  0  0  0  0  0
   -0.9964    0.7935    0.1584 C   0  0  0  0  0  0  0  0  0  0  0  0
   -0.4333    1.3203   -1.0393 O   0  0  0  0  0  0  0  0  0  0  0  0
    0.7024    0.4629   -1.0692 C   0  0  0  0  0  0  0  0  0  0  0  0
    0.1369    0.8811    2.0594 H   0  0  0  0  0  0  0  0  0  0  0  0
   -0.2591   -1.5878    1.3465 H   0  0  0  0  0  0  0  0  0  0  0  0
    1.5103   -1.1673    0.9973 H   0  0  0  0  0  0  0  0  0  0  0  0
    0.4222   -1.7277   -1.2160 H   0  0  0  0  0  0  0  0  0  0  0  0
   -1.8193   -0.4543   -1.4492 H   0  0  0  0  0  0  0  0  0  0  0  0
   -1.7821   -1.2551    0.2203 H   0  0  0  0  0  0  0  0  0  0  0  0
   -1.8414    1.3123    0.5193 H   0  0  0  0  0  0  0  0  0  0  0  0
    1.3131    0.5538   -1.9206 H   0  0  0  0  0  0  0  0  0  0  0  0
  1  2  2  0
  2  3  1  0
  3  4  1  0
  4  5  1  0
  5  6  1  0
  6  7  1  0
  7  8  1  0
  8  9  1  0
  9  2  1  0
  7  3  1  0
  9  5  1  0
  3 10  1  0
  4 11  1  0
  4 12  1  0
  5 13  1  0
  6 14  1  0
  6 15  1  0
  7 16  1  0
  9 17  1  0
M  END
