
     RDKit          3D

 17 18  0  0  0  0  0  0  0  0999 V2000
    2.9269    1.7861   -0.0195 O   0  0  0  0  0  0  0  0  0  0  0  0
    2.4740    0.6509    0.0584 C   0  0  0  0  0  0  0  0  0  0  0  0
    2.5898   -0.5838   -0.5746 O   0  0  0  0  0  0  0  0  0  0  0  0
    1.1645   -0.4647   -0.6058 C   0  0  0  0  0  0  0  0  0  0  0  0
    0.2303   -0.6379    0.4586 C   0  0  0  0  0  0  0  0  0  0  0  0
   -0.9483    0.3119    0.6899 C   0  0  0  0  0  0  0  0  0  0  0  0
   -1.8660    0.3445   -0.5038 C   0  0  0  0  0  0  0  0  0  0  0  0
   -2.4061   -0.8921   -0.8043 O   0  0  0  0  0  0  0  0  0  0  0  0
    1.5060   -0.1008    0.8982 C   0  0  0  0  0  0  0  0  0  0  0  0
    0.9423    0.4510   -1.2422 H   0  0  0  0  0  0  0  0  0  0  0  0
   -0.0960   -1.7017    0.6712 H   0  0  0  0  0  0  0  0  0  0  0  0
   -1.4737   -0.0279    1.6056 H   0  0  0  0  0  0  0  0  0  0  0  0
   -0.5939    1.3666    0.8376 H   0  0  0  0  0  0  0  0  0  0  0  0
   -1.2802    0.7016   -1.3750 H   0  0  0  0  0  0  0  0  0  0  0  0
   -2.6576    1.0888   -0.2763 H   0  0  0  0  0  0  0  0  0  0  0  0
   -2.6269   -1.3970    0.0045 H   0  0  0  0  0  0  0  0  0  0  0  0
    2.1148   -0.8956    1.4380 H   0  0  0  0  0  0  0  0  0  0  0  0
  1  2  2  0
  2  3  1  0
  3  4  1  0
  4  5  1  0
  5  6  1  0
  6  7  1  0
  7  8  1  0
  5  9  1  0
  9  2  1  0
  9  4  1  0
  4 10  1  0
  5 11  1  0
  6 12  1  0
  6 13  1  0
  7 14  1  0
  7 15  1  0
  8 16  1  0
  9 17  1  0
M  END
