
     RDKit          3D

 17 19  0  0  0  0  0  0  0  0999 V2000
    0.4444    2.5901    0.1858 O   0  0  0  0  0  0  0  0  0  0  0  0
    0.5944    1.4583   -0.1826 C   0  0  0  0  0  0  0  0  0  0  0  0
    1.8077    0.5658   -0.0666 C   0  0  0  0  0  0  0  0  0  0  0  0
    1.1112   -0.6844    0.4840 C   0  0  0  0  0  0  0  0  0  0  0  0
    0.0029   -0.8499   -0.5197 C   0  0  0  0  0  0  0  0  0  0  0  0
   -1.3880   -1.1581   -0.0891 C   0  0  0  0  0  0  0  0  0  0  0  0
   -1.7232    0.3173   -0.2505 C   0  0  0  0  0  0  0  0  0  0  0  0
   -0.3988    0.5839   -0.8787 C   0  0  0  0  0  0  0  0  0  0  0  0
    0.1643   -0.3191   -1.7728 O   0  0  0  0  0  0  0  0  0  0  0  0
    2.5563    0.9610    0.6080 H   0  0  0  0  0  0  0  0  0  0  0  0
    2.1435    0.3921   -1.1043 H   0  0  0  0  0  0  0  0  0  0  0  0
    0.6588   -0.3618    1.4562 H   0  0  0  0  0  0  0  0  0  0  0  0
    1.7829   -1.5339    0.5666 H   0  0  0  0  0  0  0  0  0  0  0  0
   -1.5076   -1.5411    0.9236 H   0  0  0  0  0  0  0  0  0  0  0  0
   -1.9240   -1.7576   -0.8647 H   0  0  0  0  0  0  0  0  0  0  0  0
   -2.5491    0.5500   -0.9209 H   0  0  0  0  0  0  0  0  0  0  0  0
   -1.7758    0.7874    0.7719 H   0  0  0  0  0  0  0  0  0  0  0  0
  1  2  2  0
  2  3  1  0
  3  4  1  0
  4  5  1  0
  5  6  1  0
  6  7  1  0
  7  8  1  0
  8  9  1  0
  8  2  1  0
  8  5  1  0
  9  5  1  0
  3 10  1  0
  3 11  1  0
  4 12  1  0
  4 13  1  0
  6 14  1  0
  6 15  1  0
  7 16  1  0
  7 17  1  0
M  END
