
     RDKit          3D

 16 17  0  0  0  0  0  0  0  0999 V2000
    1.2701    1.6689    1.3387 O   0  0  0  0  0  0  0  0  0  0  0  0
    1.0747    0.8043    0.5050 C   0  0  0  0  0  0  0  0  0  0  0  0
    1.8913   -0.4092    0.2272 C   0  0  0  0  0  0  0  0  0  0  0  0
    0.9538   -1.3709   -0.0256 O   0  0  0  0  0  0  0  0  0  0  0  0
   -0.1364   -0.8124   -0.6288 C   0  0  0  0  0  0  0  0  0  0  0  0
   -1.3805   -0.7284    0.2667 C   0  0  0  0  0  0  0  0  0  0  0  0
   -1.4162    0.7732    0.0649 C   0  0  0  0  0  0  0  0  0  0  0  0
   -0.0317    0.6926   -0.4870 C   0  0  0  0  0  0  0  0  0  0  0  0
    2.5486   -0.6787    1.0720 H   0  0  0  0  0  0  0  0  0  0  0  0
    2.4778   -0.1792   -0.6992 H   0  0  0  0  0  0  0  0  0  0  0  0
   -0.3771   -1.1487   -1.6572 H   0  0  0  0  0  0  0  0  0  0  0  0
   -1.1044   -0.9642    1.3223 H   0  0  0  0  0  0  0  0  0  0  0  0
   -2.2618   -1.2470   -0.1299 H   0  0  0  0  0  0  0  0  0  0  0  0
   -1.5215    1.3278    1.0085 H   0  0  0  0  0  0  0  0  0  0  0  0
   -2.1374    1.0485   -0.7354 H   0  0  0  0  0  0  0  0  0  0  0  0
    0.1508    1.2234   -1.4423 H   0  0  0  0  0  0  0  0  0  0  0  0
  1  2  2  0
  2  3  1  0
  3  4  1  0
  4  5  1  0
  5  6  1  0
  6  7  1  0
  7  8  1  0
  8  2  1  0
  8  5  1  0
  3  9  1  0
  3 10  1  0
  5 11  1  0
  6 12  1  0
  6 13  1  0
  7 14  1  0
  7 15  1  0
  8 16  1  0
M  END
