
     RDKit          3D

 15 17  0  0  0  0  0  0  0  0999 V2000
    2.6450    0.2921   -0.9674 O   0  0  0  0  0  0  0  0  0  0  0  0
    1.7312   -0.3483   -0.3871 C   0  0  0  0  0  0  0  0  0  0  0  0
    1.1129   -1.5923   -0.4444 O   0  0  0  0  0  0  0  0  0  0  0  0
   -0.0034   -1.1623    0.3018 C   0  0  0  0  0  0  0  0  0  0  0  0
   -1.1342   -0.5996   -0.5193 C   0  0  0  0  0  0  0  0  0  0  0  0
   -1.1354    0.8666   -0.2274 C   0  0  0  0  0  0  0  0  0  0  0  0
   -0.1231    1.5942   -0.8851 O   0  0  0  0  0  0  0  0  0  0  0  0
    0.0477    1.2592    0.4379 C   0  0  0  0  0  0  0  0  0  0  0  0
    0.8331   -0.0025    0.7245 C   0  0  0  0  0  0  0  0  0  0  0  0
   -0.2937   -1.8836    1.0830 H   0  0  0  0  0  0  0  0  0  0  0  0
   -2.0814   -1.1099   -0.3196 H   0  0  0  0  0  0  0  0  0  0  0  0
   -0.8515   -0.7167   -1.6061 H   0  0  0  0  0  0  0  0  0  0  0  0
   -2.1302    1.3787   -0.1034 H   0  0  0  0  0  0  0  0  0  0  0  0
    0.0873    2.0795    1.1811 H   0  0  0  0  0  0  0  0  0  0  0  0
    1.2957   -0.0553    1.7315 H   0  0  0  0  0  0  0  0  0  0  0  0
  1  2  2  0
  2  3  1  0
  3  4  1  0
  4  5  1  0
  5  6  1  0
  6  7  1  0
  7  8  1  0
  8  9  1  0
  9  2  1  0
  9  4  1  0
  8  6  1  0
  4 10  1  0
  5 11  1  0
  5 12  1  0
  6 13  1  0
  8 14  1  0
  9 15  1  0
M  END
