
     RDKit          3D

 17 19  0  0  0  0  0  0  0  0999 V2000
    2.1763    1.4843   -0.7645 O   0  0  0  0  0  0  0  0  0  0  0  0
    1.2217    0.8832   -0.3342 C   0  0  0  0  0  0  0  0  0  0  0  0
    1.2552   -0.4405    0.3147 C   0  0  0  0  0  0  0  0  0  0  0  0
    1.4484   -1.4887   -0.5707 O   0  0  0  0  0  0  0  0  0  0  0  0
   -0.1443   -0.5794    0.8785 C   0  0  0  0  0  0  0  0  0  0  0  0
   -1.0895   -1.0192   -0.2145 C   0  0  0  0  0  0  0  0  0  0  0  0
   -1.3104    0.4447   -0.5256 C   0  0  0  0  0  0  0  0  0  0  0  0
   -0.1754    1.3907   -0.3895 C   0  0  0  0  0  0  0  0  0  0  0  0
   -0.7743    0.7694    0.8001 C   0  0  0  0  0  0  0  0  0  0  0  0
    2.0381   -0.5299    1.1008 H   0  0  0  0  0  0  0  0  0  0  0  0
    2.0675   -1.2626   -1.3082 H   0  0  0  0  0  0  0  0  0  0  0  0
   -0.1962   -1.0947    1.8238 H   0  0  0  0  0  0  0  0  0  0  0  0
   -0.6165   -1.5147   -1.0854 H   0  0  0  0  0  0  0  0  0  0  0  0
   -1.9789   -1.5805    0.1113 H   0  0  0  0  0  0  0  0  0  0  0  0
   -2.2806    0.8460   -0.7924 H   0  0  0  0  0  0  0  0  0  0  0  0
   -0.3583    2.4300   -0.6447 H   0  0  0  0  0  0  0  0  0  0  0  0
   -1.2829    1.2617    1.6005 H   0  0  0  0  0  0  0  0  0  0  0  0
  1  2  2  0
  2  3  1  0
  3  4  1  0
  3  5  1  0
  5  6  1  0
  6  7  1  0
  7  8  1  0
  8  9  1  0
  8  2  1  0
  9  5  1  0
  9  7  1  0
  3 10  1  0
  4 11  1  0
  5 12  1  0
  6 13  1  0
  6 14  1  0
  7 15  1  0
  8 16  1  0
  9 17  1  0
M  END
