
     RDKit          3D

 15 17  0  0  0  0  0  0  0  0999 V2000
   -1.9448   -1.4519    0.9125 O   0  0  0  0  0  0  0  0  0  0  0  0
   -1.4043   -0.5050    0.3980 C   0  0  0  0  0  0  0  0  0  0  0  0
   -1.8847    0.6054   -0.4595 C   0  0  0  0  0  0  0  0  0  0  0  0
   -0.8327    1.3753    0.0874 O   0  0  0  0  0  0  0  0  0  0  0  0
   -0.1573    0.1761    0.2237 C   0  0  0  0  0  0  0  0  0  0  0  0
    0.7668   -0.2177   -0.8687 C   0  0  0  0  0  0  0  0  0  0  0  0
    1.9190   -0.1310    0.0726 C   0  0  0  0  0  0  0  0  0  0  0  0
    2.0196    0.9444    0.9568 O   0  0  0  0  0  0  0  0  0  0  0  0
    0.9257    0.0933    1.2074 C   0  0  0  0  0  0  0  0  0  0  0  0
   -1.6159    0.4159   -1.5301 H   0  0  0  0  0  0  0  0  0  0  0  0
   -2.8854    0.9776   -0.2732 H   0  0  0  0  0  0  0  0  0  0  0  0
    0.6287   -1.2488   -1.2473 H   0  0  0  0  0  0  0  0  0  0  0  0
    0.8169    0.5701   -1.6503 H   0  0  0  0  0  0  0  0  0  0  0  0
    2.6548   -0.9480    0.1702 H   0  0  0  0  0  0  0  0  0  0  0  0
    0.9936   -0.6556    2.0005 H   0  0  0  0  0  0  0  0  0  0  0  0
  1  2  2  0
  2  3  1  0
  3  4  1  0
  4  5  1  0
  5  6  1  0
  6  7  1  0
  7  8  1  0
  8  9  1  0
  5  2  1  0
  9  7  1  0
  9  5  1  0
  3 10  1  0
  3 11  1  0
  6 12  1  0
  6 13  1  0
  7 14  1  0
  9 15  1  0
M  END
