
     RDKit          3D

 18 19  0  0  0  0  0  0  0  0999 V2000
   -2.2989   -1.9852    0.7746 O   0  0  0  0  0  0  0  0  0  0  0  0
   -1.5666   -1.0888    0.4223 C   0  0  0  0  0  0  0  0  0  0  0  0
   -1.5664   -0.0571   -0.6433 C   0  0  0  0  0  0  0  0  0  0  0  0
   -0.6412    0.7692    0.2116 C   0  0  0  0  0  0  0  0  0  0  0  0
    0.5887    1.2924   -0.4257 C   0  0  0  0  0  0  0  0  0  0  0  0
    1.6840    0.2997   -0.0871 C   0  0  0  0  0  0  0  0  0  0  0  0
    0.9330   -1.0039    0.0905 C   0  0  0  0  0  0  0  0  0  0  0  0
   -0.2714   -0.5561    0.8869 C   0  0  0  0  0  0  0  0  0  0  0  0
   -2.5133    0.4440   -0.8473 H   0  0  0  0  0  0  0  0  0  0  0  0
   -1.1173   -0.4691   -1.5718 H   0  0  0  0  0  0  0  0  0  0  0  0
   -1.2130    1.4370    0.8641 H   0  0  0  0  0  0  0  0  0  0  0  0
    0.5230    1.5328   -1.4835 H   0  0  0  0  0  0  0  0  0  0  0  0
    0.8767    2.2453    0.1059 H   0  0  0  0  0  0  0  0  0  0  0  0
    2.1440    0.5351    0.8949 H   0  0  0  0  0  0  0  0  0  0  0  0
    2.4121    0.2725   -0.9103 H   0  0  0  0  0  0  0  0  0  0  0  0
    0.5939   -1.4256   -0.8781 H   0  0  0  0  0  0  0  0  0  0  0  0
    1.5436   -1.7463    0.6348 H   0  0  0  0  0  0  0  0  0  0  0  0
   -0.1108   -0.4960    1.9614 H   0  0  0  0  0  0  0  0  0  0  0  0
  1  2  2  0
  2  3  1  0
  3  4  1  0
  4  5  1  0
  5  6  1  0
  6  7  1  0
  7  8  1  0
  8  2  1  0
  8  4  1  0
  3  9  1  0
  3 10  1  0
  4 11  1  0
  5 12  1  0
  5 13  1  0
  6 14  1  0
  6 15  1  0
  7 16  1  0
  7 17  1  0
  8 18  1  0
M  END
