
     RDKit          3D

 15 16  0  0  0  0  0  0  0  0999 V2000
    1.4714    2.8508    0.1116 O   0  0  0  0  0  0  0  0  0  0  0  0
    0.5602    1.9861   -0.1151 C   0  0  0  0  0  0  0  0  0  0  0  0
   -0.7127    1.9318    0.4351 O   0  0  0  0  0  0  0  0  0  0  0  0
   -1.0772    0.5857    0.5570 C   0  0  0  0  0  0  0  0  0  0  0  0
   -1.5612   -0.2068   -0.5911 C   0  0  0  0  0  0  0  0  0  0  0  0
   -0.1221   -0.1274   -0.3777 C   0  0  0  0  0  0  0  0  0  0  0  0
    0.6844   -1.2022    0.2975 C   0  0  0  0  0  0  0  0  0  0  0  0
    1.5440   -1.8538   -0.5829 O   0  0  0  0  0  0  0  0  0  0  0  0
    0.6361    0.8960   -0.9698 O   0  0  0  0  0  0  0  0  0  0  0  0
   -1.2480    0.1967    1.5702 H   0  0  0  0  0  0  0  0  0  0  0  0
   -1.9755    0.3752   -1.4450 H   0  0  0  0  0  0  0  0  0  0  0  0
   -2.0763   -1.1534   -0.3505 H   0  0  0  0  0  0  0  0  0  0  0  0
    1.3208   -0.7264    1.0850 H   0  0  0  0  0  0  0  0  0  0  0  0
    0.0723   -1.9560    0.8049 H   0  0  0  0  0  0  0  0  0  0  0  0
    2.4839   -1.5963   -0.4291 H   0  0  0  0  0  0  0  0  0  0  0  0
  1  2  2  0
  2  3  1  0
  3  4  1  0
  4  5  1  0
  5  6  1  0
  6  7  1  0
  7  8  1  0
  6  9  1  0
  9  2  1  0
  6  4  1  0
  4 10  1  0
  5 11  1  0
  5 12  1  0
  7 13  1  0
  7 14  1  0
  8 15  1  0
M  END
