
     RDKit          3D

 17 19  0  0  0  0  0  0  0  0999 V2000
    3.0794   -0.1565   -0.6852 O   0  0  0  0  0  0  0  0  0  0  0  0
    1.9125   -0.1948   -0.3675 C   0  0  0  0  0  0  0  0  0  0  0  0
    1.0362   -0.8757    0.6586 C   0  0  0  0  0  0  0  0  0  0  0  0
    0.6579    0.1978    1.4253 O   0  0  0  0  0  0  0  0  0  0  0  0
    0.1545    1.1071    0.4600 C   0  0  0  0  0  0  0  0  0  0  0  0
   -1.3318    0.9147    0.2826 C   0  0  0  0  0  0  0  0  0  0  0  0
   -1.3800   -0.5945    0.0067 C   0  0  0  0  0  0  0  0  0  0  0  0
   -0.0044   -0.9494   -0.4658 C   0  0  0  0  0  0  0  0  0  0  0  0
    0.6406    0.3993   -0.7892 C   0  0  0  0  0  0  0  0  0  0  0  0
    1.3801   -1.7803    1.0807 H   0  0  0  0  0  0  0  0  0  0  0  0
    0.4921    2.1148    0.5845 H   0  0  0  0  0  0  0  0  0  0  0  0
   -1.6098    1.4306   -0.6739 H   0  0  0  0  0  0  0  0  0  0  0  0
   -1.9313    1.2053    1.1359 H   0  0  0  0  0  0  0  0  0  0  0  0
   -2.1363   -0.8331   -0.7409 H   0  0  0  0  0  0  0  0  0  0  0  0
   -1.5777   -1.0775    1.0072 H   0  0  0  0  0  0  0  0  0  0  0  0
    0.1227   -1.7308   -1.1841 H   0  0  0  0  0  0  0  0  0  0  0  0
    0.4952    0.8232   -1.7349 H   0  0  0  0  0  0  0  0  0  0  0  0
  1  2  2  0
  2  3  1  0
  3  4  1  0
  4  5  1  0
  5  6  1  0
  6  7  1  0
  7  8  1  0
  8  9  1  0
  9  2  1  0
  8  3  1  0
  9  5  1  0
  3 10  1  0
  5 11  1  0
  6 12  1  0
  6 13  1  0
  7 14  1  0
  7 15  1  0
  8 16  1  0
  9 17  1  0
M  END
