
     RDKit          3D

 14 15  0  0  0  0  0  0  0  0999 V2000
    2.9968    0.9862   -0.2300 O   0  0  0  0  0  0  0  0  0  0  0  0
    1.8882    0.4955   -0.1347 C   0  0  0  0  0  0  0  0  0  0  0  0
    0.8311    0.3673    0.8922 C   0  0  0  0  0  0  0  0  0  0  0  0
    0.0369   -0.4282   -0.1336 C   0  0  0  0  0  0  0  0  0  0  0  0
   -1.4361   -0.3905   -0.1334 C   0  0  0  0  0  0  0  0  0  0  0  0
   -1.8384    0.8192    0.4821 O   0  0  0  0  0  0  0  0  0  0  0  0
    0.6541   -1.5597   -0.7058 O   0  0  0  0  0  0  0  0  0  0  0  0
    1.0029   -0.2606   -1.0627 C   0  0  0  0  0  0  0  0  0  0  0  0
    1.0626   -0.2799    1.7504 H   0  0  0  0  0  0  0  0  0  0  0  0
    0.2711    1.2940    1.1235 H   0  0  0  0  0  0  0  0  0  0  0  0
   -1.8975   -0.4755   -1.1470 H   0  0  0  0  0  0  0  0  0  0  0  0
   -1.8970   -1.1989    0.4756 H   0  0  0  0  0  0  0  0  0  0  0  0
   -2.7101    0.6882    0.9630 H   0  0  0  0  0  0  0  0  0  0  0  0
    1.0354   -0.0571   -2.1394 H   0  0  0  0  0  0  0  0  0  0  0  0
  1  2  2  0
  2  3  1  0
  3  4  1  0
  4  5  1  0
  5  6  1  0
  4  7  1  0
  7  8  1  0
  8  2  1  0
  8  4  1  0
  3  9  1  0
  3 10  1  0
  5 11  1  0
  5 12  1  0
  6 13  1  0
  8 14  1  0
M  END
