
     RDKit          3D

 15 16  0  0  0  0  0  0  0  0999 V2000
    2.5178   -0.1311   -1.1271 O   0  0  0  0  0  0  0  0  0  0  0  0
    1.7740    0.1115   -0.1631 C   0  0  0  0  0  0  0  0  0  0  0  0
    1.6281    1.2032    0.6644 O   0  0  0  0  0  0  0  0  0  0  0  0
    0.2876    0.8180    0.9078 C   0  0  0  0  0  0  0  0  0  0  0  0
   -0.5730    1.2148   -0.2120 C   0  0  0  0  0  0  0  0  0  0  0  0
   -0.7003    2.3205   -0.7103 O   0  0  0  0  0  0  0  0  0  0  0  0
   -1.2916   -0.0046   -0.6546 C   0  0  0  0  0  0  0  0  0  0  0  0
   -0.4138   -1.1487   -0.1999 C   0  0  0  0  0  0  0  0  0  0  0  0
    0.7276   -0.5820    0.5605 C   0  0  0  0  0  0  0  0  0  0  0  0
   -0.0902    0.9644    1.9173 H   0  0  0  0  0  0  0  0  0  0  0  0
   -1.4620   -0.0258   -1.7464 H   0  0  0  0  0  0  0  0  0  0  0  0
   -2.2809    0.0033   -0.1371 H   0  0  0  0  0  0  0  0  0  0  0  0
   -0.1512   -1.7886   -1.0425 H   0  0  0  0  0  0  0  0  0  0  0  0
   -1.0327   -1.7523    0.5289 H   0  0  0  0  0  0  0  0  0  0  0  0
    1.0609   -1.2026    1.4143 H   0  0  0  0  0  0  0  0  0  0  0  0
  1  2  2  0
  2  3  1  0
  3  4  1  0
  4  5  1  0
  5  6  2  0
  5  7  1  0
  7  8  1  0
  8  9  1  0
  9  2  1  0
  9  4  1  0
  4 10  1  0
  7 11  1  0
  7 12  1  0
  8 13  1  0
  8 14  1  0
  9 15  1  0
M  END
