
     RDKit          3D

 17 18  0  0  0  0  0  0  0  0999 V2000
    2.9083    1.1972   -0.3653 O   0  0  0  0  0  0  0  0  0  0  0  0
    1.7543    0.7351   -0.1815 C   0  0  0  0  0  0  0  0  0  0  0  0
    1.6590   -0.7348    0.0238 C   0  0  0  0  0  0  0  0  0  0  0  0
    0.5326   -1.4380    0.1435 C   0  0  0  0  0  0  0  0  0  0  0  0
   -0.8552   -0.8764    0.1752 C   0  0  0  0  0  0  0  0  0  0  0  0
   -0.9700    0.0863   -1.0140 C   0  0  0  0  0  0  0  0  0  0  0  0
   -0.6910    1.2918   -0.1232 C   0  0  0  0  0  0  0  0  0  0  0  0
   -0.8997    0.3561    1.0580 C   0  0  0  0  0  0  0  0  0  0  0  0
    0.6982    1.6616   -0.1925 O   0  0  0  0  0  0  0  0  0  0  0  0
    2.5858   -1.2712    0.0797 H   0  0  0  0  0  0  0  0  0  0  0  0
    0.5675   -2.5069    0.2283 H   0  0  0  0  0  0  0  0  0  0  0  0
   -1.6505   -1.5991    0.2823 H   0  0  0  0  0  0  0  0  0  0  0  0
   -2.0522    0.1201   -1.3197 H   0  0  0  0  0  0  0  0  0  0  0  0
   -0.2531   -0.0889   -1.8137 H   0  0  0  0  0  0  0  0  0  0  0  0
   -1.3831    2.1247   -0.2109 H   0  0  0  0  0  0  0  0  0  0  0  0
   -1.9017    0.4957    1.4651 H   0  0  0  0  0  0  0  0  0  0  0  0
   -0.0491    0.4467    1.7649 H   0  0  0  0  0  0  0  0  0  0  0  0
  1  2  2  0
  2  3  1  0
  3  4  2  0
  4  5  1  0
  5  6  1  0
  6  7  1  0
  7  8  1  0
  7  9  1  0
  9  2  1  0
  8  5  1  0
  3 10  1  0
  4 11  1  0
  5 12  1  0
  6 13  1  0
  6 14  1  0
  7 15  1  0
  8 16  1  0
  8 17  1  0
M  END
