
     RDKit          3D

 15 16  0  0  0  0  0  0  0  0999 V2000
    2.2581    1.1055   -0.7306 O   0  0  0  0  0  0  0  0  0  0  0  0
    1.2495    0.6033   -0.3466 C   0  0  0  0  0  0  0  0  0  0  0  0
    1.0247   -0.8514   -0.4688 C   0  0  0  0  0  0  0  0  0  0  0  0
   -0.3621   -1.2269    0.0555 C   0  0  0  0  0  0  0  0  0  0  0  0
   -1.0053   -0.0572    0.7543 C   0  0  0  0  0  0  0  0  0  0  0  0
   -0.1150    0.7255    1.4841 O   0  0  0  0  0  0  0  0  0  0  0  0
    0.1721    1.4071    0.2711 C   0  0  0  0  0  0  0  0  0  0  0  0
   -1.1663    1.0265   -0.2410 C   0  0  0  0  0  0  0  0  0  0  0  0
   -2.0081    1.3625   -1.0388 O   0  0  0  0  0  0  0  0  0  0  0  0
    1.7457   -1.4465    0.1440 H   0  0  0  0  0  0  0  0  0  0  0  0
    1.1165   -1.2178   -1.5004 H   0  0  0  0  0  0  0  0  0  0  0  0
   -0.3326   -2.1026    0.7198 H   0  0  0  0  0  0  0  0  0  0  0  0
   -1.0232   -1.4651   -0.8259 H   0  0  0  0  0  0  0  0  0  0  0  0
   -1.9132   -0.3326    1.3136 H   0  0  0  0  0  0  0  0  0  0  0  0
    0.3592    2.4697    0.4099 H   0  0  0  0  0  0  0  0  0  0  0  0
  1  2  2  0
  2  3  1  0
  3  4  1  0
  4  5  1  0
  5  6  1  0
  6  7  1  0
  7  8  1  0
  8  9  2  0
  7  2  1  0
  8  5  1  0
  3 10  1  0
  3 11  1  0
  4 12  1  0
  4 13  1  0
  5 14  1  0
  7 15  1  0
M  END
