
     RDKit          3D

 15 16  0  0  0  0  0  0  0  0999 V2000
   -0.8370    2.2615   -0.9673 O   0  0  0  0  0  0  0  0  0  0  0  0
   -0.5956    1.2057   -0.4524 C   0  0  0  0  0  0  0  0  0  0  0  0
   -0.0798    0.6648    0.8616 C   0  0  0  0  0  0  0  0  0  0  0  0
    1.2414    0.1075    0.4206 C   0  0  0  0  0  0  0  0  0  0  0  0
    0.7445   -0.7570   -0.7551 C   0  0  0  0  0  0  0  0  0  0  0  0
   -0.6678   -0.2261   -0.8234 C   0  0  0  0  0  0  0  0  0  0  0  0
   -1.0732   -0.4498    0.6419 C   0  0  0  0  0  0  0  0  0  0  0  0
   -0.1548    1.2840    1.7137 H   0  0  0  0  0  0  0  0  0  0  0  0
    1.8409    0.9554    0.0190 H   0  0  0  0  0  0  0  0  0  0  0  0
    1.7580   -0.4846    1.1722 H   0  0  0  0  0  0  0  0  0  0  0  0
    0.6904   -1.7824   -0.3717 H   0  0  0  0  0  0  0  0  0  0  0  0
    1.3267   -0.6067   -1.6536 H   0  0  0  0  0  0  0  0  0  0  0  0
   -1.3282   -0.5573   -1.5750 H   0  0  0  0  0  0  0  0  0  0  0  0
   -2.1048   -0.1624    0.8296 H   0  0  0  0  0  0  0  0  0  0  0  0
   -0.7608   -1.4524    0.9398 H   0  0  0  0  0  0  0  0  0  0  0  0
  1  2  2  0
  2  3  1  0
  3  4  1  0
  4  5  1  0
  5  6  1  0
  6  7  1  0
  6  2  1  0
  7  3  1  0
  3  8  1  0
  4  9  1  0
  4 10  1  0
  5 11  1  0
  5 12  1  0
  6 13  1  0
  7 14  1  0
  7 15  1  0
M  END
