
     RDKit          3D

 17 19  0  0  0  0  0  0  0  0999 V2000
    2.5286    0.4188    1.2072 O   0  0  0  0  0  0  0  0  0  0  0  0
    1.5755    0.1644    0.5309 C   0  0  0  0  0  0  0  0  0  0  0  0
    0.7297   -0.9549    0.0085 C   0  0  0  0  0  0  0  0  0  0  0  0
    0.7405   -0.1196   -1.2706 C   0  0  0  0  0  0  0  0  0  0  0  0
    0.6068    1.0126   -0.2528 C   0  0  0  0  0  0  0  0  0  0  0  0
   -0.6993    0.9516    0.4915 C   0  0  0  0  0  0  0  0  0  0  0  0
   -1.6442   -0.1027   -0.0288 C   0  0  0  0  0  0  0  0  0  0  0  0
   -0.6267   -0.9378    0.6647 C   0  0  0  0  0  0  0  0  0  0  0  0
   -0.6059    0.1038    1.6296 O   0  0  0  0  0  0  0  0  0  0  0  0
    1.2555   -1.9003   -0.0364 H   0  0  0  0  0  0  0  0  0  0  0  0
   -0.0294   -0.2606   -1.9903 H   0  0  0  0  0  0  0  0  0  0  0  0
    1.7650   -0.1138   -1.6882 H   0  0  0  0  0  0  0  0  0  0  0  0
    0.9718    1.9818   -0.5648 H   0  0  0  0  0  0  0  0  0  0  0  0
   -1.1469    1.9084    0.7864 H   0  0  0  0  0  0  0  0  0  0  0  0
   -1.8310   -0.1871   -1.0763 H   0  0  0  0  0  0  0  0  0  0  0  0
   -2.5797   -0.0775    0.5611 H   0  0  0  0  0  0  0  0  0  0  0  0
   -1.0103   -1.8873    1.0284 H   0  0  0  0  0  0  0  0  0  0  0  0
  1  2  2  0
  2  3  1  0
  3  4  1  0
  4  5  1  0
  5  6  1  0
  6  7  1  0
  7  8  1  0
  8  9  1  0
  5  2  1  0
  9  6  1  0
  8  3  1  0
  3 10  1  0
  4 11  1  0
  4 12  1  0
  5 13  1  0
  6 14  1  0
  7 15  1  0
  7 16  1  0
  8 17  1  0
M  END
