
     RDKit          3D

 15 15  0  0  0  0  0  0  0  0999 V2000
   -0.8853    2.1146    1.0208 O   0  0  0  0  0  0  0  0  0  0  0  0
   -0.6495    1.1263    0.3770 C   0  0  0  0  0  0  0  0  0  0  0  0
    0.6323    1.0496   -0.3530 C   0  0  0  0  0  0  0  0  0  0  0  0
    1.2804   -0.2464    0.1399 C   0  0  0  0  0  0  0  0  0  0  0  0
    0.2844   -1.3523   -0.1743 C   0  0  0  0  0  0  0  0  0  0  0  0
   -0.8935   -1.2140    0.5220 O   0  0  0  0  0  0  0  0  0  0  0  0
   -1.5584   -0.0287    0.2624 C   0  0  0  0  0  0  0  0  0  0  0  0
    1.2833    1.9208   -0.1964 H   0  0  0  0  0  0  0  0  0  0  0  0
    0.4218    0.8778   -1.4426 H   0  0  0  0  0  0  0  0  0  0  0  0
    2.2174   -0.4392   -0.3778 H   0  0  0  0  0  0  0  0  0  0  0  0
    1.3916   -0.1953    1.2545 H   0  0  0  0  0  0  0  0  0  0  0  0
    0.1239   -1.2996   -1.2858 H   0  0  0  0  0  0  0  0  0  0  0  0
    0.7379   -2.3189    0.1206 H   0  0  0  0  0  0  0  0  0  0  0  0
   -1.9471   -0.0212   -0.7978 H   0  0  0  0  0  0  0  0  0  0  0  0
   -2.4392    0.0266    0.9306 H   0  0  0  0  0  0  0  0  0  0  0  0
  1  2  2  0
  2  3  1  0
  3  4  1  0
  4  5  1  0
  5  6  1  0
  6  7  1  0
  7  2  1  0
  3  8  1  0
  3  9  1  0
  4 10  1  0
  4 11  1  0
  5 12  1  0
  5 13  1  0
  7 14  1  0
  7 15  1  0
M  END
