
     RDKit          3D

 15 17  0  0  0  0  0  0  0  0999 V2000
    1.8324    1.8934    1.1657 O   0  0  0  0  0  0  0  0  0  0  0  0
    1.2453    1.0426    0.4741 C   0  0  0  0  0  0  0  0  0  0  0  0
    1.8549   -0.1098   -0.1667 C   0  0  0  0  0  0  0  0  0  0  0  0
    0.9676   -0.7069   -0.9616 C   0  0  0  0  0  0  0  0  0  0  0  0
   -0.3238   -0.0458   -0.9565 C   0  0  0  0  0  0  0  0  0  0  0  0
   -1.5103   -0.6759   -0.2436 C   0  0  0  0  0  0  0  0  0  0  0  0
   -1.1333    0.1603    0.9574 C   0  0  0  0  0  0  0  0  0  0  0  0
   -0.1843    1.0107    0.1516 C   0  0  0  0  0  0  0  0  0  0  0  0
   -0.4680    1.3117   -1.1654 O   0  0  0  0  0  0  0  0  0  0  0  0
    2.8844   -0.3912    0.0157 H   0  0  0  0  0  0  0  0  0  0  0  0
    1.2138   -1.5828   -1.5321 H   0  0  0  0  0  0  0  0  0  0  0  0
   -2.4795   -0.3574   -0.7242 H   0  0  0  0  0  0  0  0  0  0  0  0
   -1.3940   -1.7602   -0.1359 H   0  0  0  0  0  0  0  0  0  0  0  0
   -1.9541    0.6994    1.4485 H   0  0  0  0  0  0  0  0  0  0  0  0
   -0.5510   -0.4882    1.6730 H   0  0  0  0  0  0  0  0  0  0  0  0
  1  2  2  0
  2  3  1  0
  3  4  2  0
  4  5  1  0
  5  6  1  0
  6  7  1  0
  7  8  1  0
  8  9  1  0
  8  2  1  0
  8  5  1  0
  9  5  1  0
  3 10  1  0
  4 11  1  0
  6 12  1  0
  6 13  1  0
  7 14  1  0
  7 15  1  0
M  END
