
     RDKit          3D

 16 17  0  0  0  0  0  0  0  0999 V2000
   -0.2394   -0.7304    2.4093 O   0  0  0  0  0  0  0  0  0  0  0  0
   -0.0501   -0.4242    1.2981 C   0  0  0  0  0  0  0  0  0  0  0  0
   -0.3468   -1.1501    0.0467 C   0  0  0  0  0  0  0  0  0  0  0  0
    1.0251   -1.0031   -0.5915 C   0  0  0  0  0  0  0  0  0  0  0  0
    1.5752    0.1284   -0.1730 C   0  0  0  0  0  0  0  0  0  0  0  0
    0.5502    0.7874    0.7035 C   0  0  0  0  0  0  0  0  0  0  0  0
   -0.5673    1.1813   -0.2500 C   0  0  0  0  0  0  0  0  0  0  0  0
   -1.2715   -0.1322   -0.5948 C   0  0  0  0  0  0  0  0  0  0  0  0
   -0.7008   -2.1451    0.1166 H   0  0  0  0  0  0  0  0  0  0  0  0
    1.5131   -1.6848   -1.2799 H   0  0  0  0  0  0  0  0  0  0  0  0
    2.5389    0.5432   -0.3781 H   0  0  0  0  0  0  0  0  0  0  0  0
    0.9059    1.5415    1.3565 H   0  0  0  0  0  0  0  0  0  0  0  0
   -0.0666    1.6127   -1.1457 H   0  0  0  0  0  0  0  0  0  0  0  0
   -1.2414    1.9224    0.1770 H   0  0  0  0  0  0  0  0  0  0  0  0
   -1.4030   -0.2739   -1.6651 H   0  0  0  0  0  0  0  0  0  0  0  0
   -2.2216   -0.1732   -0.0296 H   0  0  0  0  0  0  0  0  0  0  0  0
  1  2  2  0
  2  3  1  0
  3  4  1  0
  4  5  2  0
  5  6  1  0
  6  7  1  0
  7  8  1  0
  6  2  1  0
  8  3  1  0
  3  9  1  0
  4 10  1  0
  5 11  1  0
  6 12  1  0
  7 13  1  0
  7 14  1  0
  8 15  1  0
  8 16  1  0
M  END
