
     RDKit          2D

 15 17  0  0  0  0  0  0  0  0999 V2000
    0.8652   -3.5842    0.0000 O   0  0  0  0  0  0  0  0  0  0  0  0
   -0.1578   -2.4872    0.0000 C   0  0  0  0  0  0  0  0  0  0  0  0
   -1.6578   -2.4872    0.0000 O   0  0  0  0  0  0  0  0  0  0  0  0
   -2.1213   -1.0607    0.0000 C   0  0  0  0  0  0  0  0  0  0  0  0
   -1.0607   -1.4213    0.0000 C   0  0  0  0  0  0  0  0  0  0  0  0
   -0.0000   -1.0607    0.0000 C   0  0  0  0  0  0  0  0  0  0  0  0
    1.0607    0.0000    0.0000 C   0  0  0  0  0  0  0  0  0  0  0  0
    0.0000    1.0607    0.0000 O   0  0  0  0  0  0  0  0  0  0  0  0
   -1.0607    0.0000    0.0000 C   0  0  0  0  0  0  0  0  0  0  0  0
   -3.6213   -1.0607    0.0000 H   0  0  0  0  0  0  0  0  0  0  0  0
   -0.4507   -3.4917    0.0000 H   0  0  0  0  0  0  0  0  0  0  0  0
   -1.8331   -3.4071    0.0000 H   0  0  0  0  0  0  0  0  0  0  0  0
    2.1213    1.0607    0.0000 H   0  0  0  0  0  0  0  0  0  0  0  0
    2.1213   -1.0607    0.0000 H   0  0  0  0  0  0  0  0  0  0  0  0
   -2.1213    1.0607    0.0000 H   0  0  0  0  0  0  0  0  0  0  0  0
  1  2  2  0
  2  3  1  0
  3  4  1  0
  4  5  1  0
  5  6  1  0
  6  7  1  0
  7  8  1  0
  8  9  1  0
  6  2  1  0
  9  4  1  0
  9  6  1  0
  4 10  1  0
  5 11  1  0
  5 12  1  0
  7 13  1  0
  7 14  1  0
  9 15  1  0
M  END
