
     RDKit          3D

 19 20  0  0  0  0  0  0  0  0999 V2000
    3.7571   -0.5117    0.3847 O   0  0  0  0  0  0  0  0  0  0  0  0
    2.5980   -0.2537    0.1734 C   0  0  0  0  0  0  0  0  0  0  0  0
    1.4047   -0.9267   -0.4370 C   0  0  0  0  0  0  0  0  0  0  0  0
    0.6336    0.3657   -0.4149 C   0  0  0  0  0  0  0  0  0  0  0  0
   -0.7298    0.2770    0.2004 C   0  0  0  0  0  0  0  0  0  0  0  0
   -1.6348   -0.7038   -0.5228 C   0  0  0  0  0  0  0  0  0  0  0  0
   -2.6507    0.3267   -0.0602 C   0  0  0  0  0  0  0  0  0  0  0  0
   -1.6118    1.2798   -0.1565 O   0  0  0  0  0  0  0  0  0  0  0  0
    1.7179    0.9422    0.4313 C   0  0  0  0  0  0  0  0  0  0  0  0
    1.0526   -1.7092    0.2530 H   0  0  0  0  0  0  0  0  0  0  0  0
    1.5758   -1.3019   -1.4556 H   0  0  0  0  0  0  0  0  0  0  0  0
    0.5584    0.8408   -1.4230 H   0  0  0  0  0  0  0  0  0  0  0  0
   -0.7423    0.1517    1.3077 H   0  0  0  0  0  0  0  0  0  0  0  0
   -1.4356   -0.7186   -1.5958 H   0  0  0  0  0  0  0  0  0  0  0  0
   -1.7443   -1.6628   -0.0002 H   0  0  0  0  0  0  0  0  0  0  0  0
   -3.4561    0.5525   -0.7619 H   0  0  0  0  0  0  0  0  0  0  0  0
   -2.9552    0.1000    0.9823 H   0  0  0  0  0  0  0  0  0  0  0  0
    2.1918    1.8485   -0.0452 H   0  0  0  0  0  0  0  0  0  0  0  0
    1.4706    1.1033    1.4947 H   0  0  0  0  0  0  0  0  0  0  0  0
  1  2  2  0
  2  3  1  0
  3  4  1  0
  4  5  1  0
  5  6  1  0
  6  7  1  0
  7  8  1  0
  4  9  1  0
  9  2  1  0
  8  5  1  0
  3 10  1  0
  3 11  1  0
  4 12  1  0
  5 13  1  0
  6 14  1  0
  6 15  1  0
  7 16  1  0
  7 17  1  0
  9 18  1  0
  9 19  1  0
M  END
