
     RDKit          3D

 14 15  0  0  0  0  0  0  0  0999 V2000
    1.6321    2.0461   -0.7716 O   0  0  0  0  0  0  0  0  0  0  0  0
    0.8677    1.0567   -0.6335 C   0  0  0  0  0  0  0  0  0  0  0  0
    1.4345   -0.2256   -0.2128 C   0  0  0  0  0  0  0  0  0  0  0  0
    0.5928   -1.1050    0.3067 C   0  0  0  0  0  0  0  0  0  0  0  0
   -0.8695   -0.8926    0.4943 C   0  0  0  0  0  0  0  0  0  0  0  0
   -1.0636    0.5719    0.5611 C   0  0  0  0  0  0  0  0  0  0  0  0
   -1.6048    1.4793   -0.2074 O   0  0  0  0  0  0  0  0  0  0  0  0
   -0.5625    1.0115   -0.8438 C   0  0  0  0  0  0  0  0  0  0  0  0
    2.5000   -0.4461   -0.3193 H   0  0  0  0  0  0  0  0  0  0  0  0
    1.0133   -2.0608    0.6204 H   0  0  0  0  0  0  0  0  0  0  0  0
   -1.1091   -1.3416    1.4980 H   0  0  0  0  0  0  0  0  0  0  0  0
   -1.4841   -1.4300   -0.2337 H   0  0  0  0  0  0  0  0  0  0  0  0
   -0.5134    1.0109    1.4465 H   0  0  0  0  0  0  0  0  0  0  0  0
   -0.8334    0.3254   -1.7048 H   0  0  0  0  0  0  0  0  0  0  0  0
  1  2  2  0
  2  3  1  0
  3  4  2  0
  4  5  1  0
  5  6  1  0
  6  7  1  0
  7  8  1  0
  8  2  1  0
  8  6  1  0
  3  9  1  0
  4 10  1  0
  5 11  1  0
  5 12  1  0
  6 13  1  0
  8 14  1  0
M  END
