
     RDKit          3D

 19 20  0  0  0  0  0  0  0  0999 V2000
   -2.3710   -1.7846   -1.0263 O   0  0  0  0  0  0  0  0  0  0  0  0
   -1.2414   -1.5708   -0.5272 C   0  0  0  0  0  0  0  0  0  0  0  0
    0.0680   -1.8516   -0.8892 O   0  0  0  0  0  0  0  0  0  0  0  0
    0.6700   -1.2539    0.2415 C   0  0  0  0  0  0  0  0  0  0  0  0
    1.5491   -0.0925   -0.0238 C   0  0  0  0  0  0  0  0  0  0  0  0
    0.9186    1.0447   -0.7374 C   0  0  0  0  0  0  0  0  0  0  0  0
   -0.4624    1.3880   -0.2828 C   0  0  0  0  0  0  0  0  0  0  0  0
   -1.0245    0.5226    0.7772 C   0  0  0  0  0  0  0  0  0  0  0  0
   -0.7144   -0.9172    0.6912 C   0  0  0  0  0  0  0  0  0  0  0  0
    1.1709   -2.0101    0.8640 H   0  0  0  0  0  0  0  0  0  0  0  0
    2.0102    0.2338    0.9214 H   0  0  0  0  0  0  0  0  0  0  0  0
    2.4080   -0.4553   -0.6621 H   0  0  0  0  0  0  0  0  0  0  0  0
    1.5787    1.9472   -0.5741 H   0  0  0  0  0  0  0  0  0  0  0  0
    0.9651    0.8732   -1.8457 H   0  0  0  0  0  0  0  0  0  0  0  0
   -0.5208    2.4441    0.0813 H   0  0  0  0  0  0  0  0  0  0  0  0
   -1.1335    1.3731   -1.1904 H   0  0  0  0  0  0  0  0  0  0  0  0
   -0.7459    0.9142    1.7986 H   0  0  0  0  0  0  0  0  0  0  0  0
   -2.1491    0.6401    0.7502 H   0  0  0  0  0  0  0  0  0  0  0  0
   -0.9756   -1.4452    1.6334 H   0  0  0  0  0  0  0  0  0  0  0  0
  1  2  2  0
  2  3  1  0
  3  4  1  0
  4  5  1  0
  5  6  1  0
  6  7  1  0
  7  8  1  0
  8  9  1  0
  9  2  1  0
  9  4  1  0
  4 10  1  0
  5 11  1  0
  5 12  1  0
  6 13  1  0
  6 14  1  0
  7 15  1  0
  7 16  1  0
  8 17  1  0
  8 18  1  0
  9 19  1  0
M  END
