
     RDKit          3D

 21 21  0  0  0  0  0  0  0  0999 V2000
   -2.4554    1.9555   -1.1416 O   0  0  0  0  0  0  0  0  0  0  0  0
   -2.2425    0.8882   -0.5985 C   0  0  0  0  0  0  0  0  0  0  0  0
   -2.3426    0.2301    0.7362 C   0  0  0  0  0  0  0  0  0  0  0  0
   -1.1449   -0.6001    0.3154 C   0  0  0  0  0  0  0  0  0  0  0  0
    0.1162    0.2085    0.4859 C   0  0  0  0  0  0  0  0  0  0  0  0
    1.3435   -0.5777    0.0782 C   0  0  0  0  0  0  0  0  0  0  0  0
    2.5575    0.3020    0.2792 C   0  0  0  0  0  0  0  0  0  0  0  0
    3.7217   -0.3741   -0.0821 O   0  0  0  0  0  0  0  0  0  0  0  0
   -1.7148   -0.4152   -1.0923 C   0  0  0  0  0  0  0  0  0  0  0  0
   -2.1178    0.8808    1.6025 H   0  0  0  0  0  0  0  0  0  0  0  0
   -3.2922   -0.3350    0.7971 H   0  0  0  0  0  0  0  0  0  0  0  0
   -1.1135   -1.6253    0.6736 H   0  0  0  0  0  0  0  0  0  0  0  0
    0.0806    1.1113   -0.1496 H   0  0  0  0  0  0  0  0  0  0  0  0
    0.2783    0.5491    1.5285 H   0  0  0  0  0  0  0  0  0  0  0  0
    1.4759   -1.4430    0.7874 H   0  0  0  0  0  0  0  0  0  0  0  0
    1.3278   -0.9046   -0.9666 H   0  0  0  0  0  0  0  0  0  0  0  0
    2.6212    0.6903    1.3225 H   0  0  0  0  0  0  0  0  0  0  0  0
    2.5163    1.2097   -0.3697 H   0  0  0  0  0  0  0  0  0  0  0  0
    3.9345   -0.2929   -1.0449 H   0  0  0  0  0  0  0  0  0  0  0  0
   -2.5764   -1.0996   -1.2705 H   0  0  0  0  0  0  0  0  0  0  0  0
   -0.9736   -0.3582   -1.8909 H   0  0  0  0  0  0  0  0  0  0  0  0
  1  2  2  0
  2  3  1  0
  3  4  1  0
  4  5  1  0
  5  6  1  0
  6  7  1  0
  7  8  1  0
  4  9  1  0
  9  2  1  0
  3 10  1  0
  3 11  1  0
  4 12  1  0
  5 13  1  0
  5 14  1  0
  6 15  1  0
  6 16  1  0
  7 17  1  0
  7 18  1  0
  8 19  1  0
  9 20  1  0
  9 21  1  0
M  END
