
     RDKit          3D

 14 15  0  0  0  0  0  0  0  0999 V2000
    1.6818   -1.7806    0.2175 O   0  0  0  0  0  0  0  0  0  0  0  0
    0.8763   -0.9215    0.1741 C   0  0  0  0  0  0  0  0  0  0  0  0
    0.2322   -0.0602   -0.8478 C   0  0  0  0  0  0  0  0  0  0  0  0
   -1.2098   -0.4174   -0.4962 C   0  0  0  0  0  0  0  0  0  0  0  0
   -1.1861   -0.4709    0.8926 O   0  0  0  0  0  0  0  0  0  0  0  0
    0.1309   -0.3373    1.3256 C   0  0  0  0  0  0  0  0  0  0  0  0
    0.5487    1.0109    1.1819 O   0  0  0  0  0  0  0  0  0  0  0  0
    0.4437    1.2808   -0.1851 C   0  0  0  0  0  0  0  0  0  0  0  0
    0.5202   -0.1721   -1.8512 H   0  0  0  0  0  0  0  0  0  0  0  0
   -1.9117    0.3347   -0.8933 H   0  0  0  0  0  0  0  0  0  0  0  0
   -1.3924   -1.4417   -0.8984 H   0  0  0  0  0  0  0  0  0  0  0  0
    0.3522   -0.7617    2.2817 H   0  0  0  0  0  0  0  0  0  0  0  0
    1.3292    1.7716   -0.5985 H   0  0  0  0  0  0  0  0  0  0  0  0
   -0.4152    1.9653   -0.3028 H   0  0  0  0  0  0  0  0  0  0  0  0
  1  2  2  0
  2  3  1  0
  3  4  1  0
  4  5  1  0
  5  6  1  0
  6  7  1  0
  7  8  1  0
  6  2  1  0
  8  3  1  0
  3  9  1  0
  4 10  1  0
  4 11  1  0
  6 12  1  0
  8 13  1  0
  8 14  1  0
M  END
