
     RDKit          3D

 17 17  0  0  0  0  0  0  0  0999 V2000
   -1.1529   -1.5887    1.5954 O   0  0  0  0  0  0  0  0  0  0  0  0
   -1.2424   -0.8656    0.5839 C   0  0  0  0  0  0  0  0  0  0  0  0
   -1.9690   -0.9646   -0.5861 O   0  0  0  0  0  0  0  0  0  0  0  0
   -1.9557    0.4476   -0.6546 C   0  0  0  0  0  0  0  0  0  0  0  0
   -0.6612    0.3920    0.1300 C   0  0  0  0  0  0  0  0  0  0  0  0
    0.5049    0.3010   -0.8102 C   0  0  0  0  0  0  0  0  0  0  0  0
    0.8900    1.6263   -1.1055 O   0  0  0  0  0  0  0  0  0  0  0  0
    1.7046   -0.3636   -0.1465 C   0  0  0  0  0  0  0  0  0  0  0  0
    1.3871   -1.6703    0.1675 O   0  0  0  0  0  0  0  0  0  0  0  0
   -2.7924    0.9623   -0.1515 H   0  0  0  0  0  0  0  0  0  0  0  0
   -1.8156    0.7650   -1.7024 H   0  0  0  0  0  0  0  0  0  0  0  0
   -0.6018    1.2063    0.8860 H   0  0  0  0  0  0  0  0  0  0  0  0
    0.1887   -0.2287   -1.7272 H   0  0  0  0  0  0  0  0  0  0  0  0
    0.8014    2.1240   -0.2458 H   0  0  0  0  0  0  0  0  0  0  0  0
    1.9306    0.2284    0.7576 H   0  0  0  0  0  0  0  0  0  0  0  0
    2.5771   -0.2636   -0.8206 H   0  0  0  0  0  0  0  0  0  0  0  0
    2.2065   -2.1079    0.5483 H   0  0  0  0  0  0  0  0  0  0  0  0
  1  2  2  0
  2  3  1  0
  3  4  1  0
  4  5  1  0
  5  6  1  0
  6  7  1  0
  6  8  1  0
  8  9  1  0
  5  2  1  0
  4 10  1  0
  4 11  1  0
  5 12  1  0
  6 13  1  0
  7 14  1  0
  8 15  1  0
  8 16  1  0
  9 17  1  0
M  END
