
     RDKit          3D

 17 18  0  0  0  0  0  0  0  0999 V2000
    0.6593   -1.4128   -2.0827 O   0  0  0  0  0  0  0  0  0  0  0  0
    0.1887   -0.6638   -1.2479 C   0  0  0  0  0  0  0  0  0  0  0  0
   -1.2095   -0.7059   -0.6972 C   0  0  0  0  0  0  0  0  0  0  0  0
   -1.2531    0.3347    0.3578 C   0  0  0  0  0  0  0  0  0  0  0  0
   -1.5408   -0.1280    1.6198 O   0  0  0  0  0  0  0  0  0  0  0  0
    0.0393    1.0701    0.3856 C   0  0  0  0  0  0  0  0  0  0  0  0
    0.9397    0.6896    1.3962 O   0  0  0  0  0  0  0  0  0  0  0  0
    1.7686   -0.0400    0.5497 C   0  0  0  0  0  0  0  0  0  0  0  0
    0.9435    0.4464   -0.6196 C   0  0  0  0  0  0  0  0  0  0  0  0
   -1.3826   -1.7287   -0.3654 H   0  0  0  0  0  0  0  0  0  0  0  0
   -1.8907   -0.4637   -1.5649 H   0  0  0  0  0  0  0  0  0  0  0  0
   -2.0638    1.0763    0.0968 H   0  0  0  0  0  0  0  0  0  0  0  0
   -1.1231   -0.9828    1.8483 H   0  0  0  0  0  0  0  0  0  0  0  0
   -0.0571    2.1770    0.3611 H   0  0  0  0  0  0  0  0  0  0  0  0
    2.8047    0.3177    0.4915 H   0  0  0  0  0  0  0  0  0  0  0  0
    1.7075   -1.1011    0.7872 H   0  0  0  0  0  0  0  0  0  0  0  0
    1.4695    1.1151   -1.3162 H   0  0  0  0  0  0  0  0  0  0  0  0
  1  2  2  0
  2  3  1  0
  3  4  1  0
  4  5  1  0
  4  6  1  0
  6  7  1  0
  7  8  1  0
  8  9  1  0
  9  2  1  0
  9  6  1  0
  3 10  1  0
  3 11  1  0
  4 12  1  0
  5 13  1  0
  6 14  1  0
  8 15  1  0
  8 16  1  0
  9 17  1  0
M  END
