
     RDKit          3D

 17 18  0  0  0  0  0  0  0  0999 V2000
   -0.3121    1.7652    2.0438 O   0  0  0  0  0  0  0  0  0  0  0  0
   -0.1019    1.2524    0.9065 C   0  0  0  0  0  0  0  0  0  0  0  0
    1.0387    1.5654    0.1531 O   0  0  0  0  0  0  0  0  0  0  0  0
    1.5116    0.4976   -0.6819 C   0  0  0  0  0  0  0  0  0  0  0  0
    1.1374   -0.8143   -0.0923 C   0  0  0  0  0  0  0  0  0  0  0  0
   -0.2169   -0.8119    0.5921 C   0  0  0  0  0  0  0  0  0  0  0  0
   -1.3455   -1.0022   -0.1212 C   0  0  0  0  0  0  0  0  0  0  0  0
   -1.0590    0.3208    0.3676 C   0  0  0  0  0  0  0  0  0  0  0  0
   -1.9956    1.0291   -0.2333 O   0  0  0  0  0  0  0  0  0  0  0  0
    1.1253    0.6476   -1.6879 H   0  0  0  0  0  0  0  0  0  0  0  0
    2.6370    0.5683   -0.7319 H   0  0  0  0  0  0  0  0  0  0  0  0
    1.0467   -1.5594   -0.9352 H   0  0  0  0  0  0  0  0  0  0  0  0
    1.9557   -1.1933    0.5406 H   0  0  0  0  0  0  0  0  0  0  0  0
   -0.1192   -1.1505    1.6713 H   0  0  0  0  0  0  0  0  0  0  0  0
   -1.3127   -1.2971   -1.2172 H   0  0  0  0  0  0  0  0  0  0  0  0
   -2.2566   -1.5027    0.3375 H   0  0  0  0  0  0  0  0  0  0  0  0
   -1.7330    1.6849   -0.9116 H   0  0  0  0  0  0  0  0  0  0  0  0
  1  2  2  0
  2  3  1  0
  3  4  1  0
  4  5  1  0
  5  6  1  0
  6  7  1  0
  7  8  1  0
  8  9  1  0
  8  2  1  0
  8  6  1  0
  4 10  1  0
  4 11  1  0
  5 12  1  0
  5 13  1  0
  6 14  1  0
  7 15  1  0
  7 16  1  0
  9 17  1  0
M  END
