
     RDKit          3D

 16 17  0  0  0  0  0  0  0  0999 V2000
    1.9616   -1.2802   -1.0309 O   0  0  0  0  0  0  0  0  0  0  0  0
    1.3322   -0.5497   -0.3091 C   0  0  0  0  0  0  0  0  0  0  0  0
    1.3655    0.9437   -0.4151 C   0  0  0  0  0  0  0  0  0  0  0  0
    0.1290    1.4668   -0.6303 O   0  0  0  0  0  0  0  0  0  0  0  0
   -0.9099    0.9527    0.0403 C   0  0  0  0  0  0  0  0  0  0  0  0
   -1.5826   -0.2529   -0.6543 C   0  0  0  0  0  0  0  0  0  0  0  0
   -0.8801   -0.3410    0.6442 C   0  0  0  0  0  0  0  0  0  0  0  0
    0.4336   -1.0403    0.7895 C   0  0  0  0  0  0  0  0  0  0  0  0
    1.8104    1.3361    0.5245 H   0  0  0  0  0  0  0  0  0  0  0  0
    2.0373    1.1772   -1.2696 H   0  0  0  0  0  0  0  0  0  0  0  0
   -1.6170    1.7223    0.4735 H   0  0  0  0  0  0  0  0  0  0  0  0
   -1.1318   -0.6232   -1.5887 H   0  0  0  0  0  0  0  0  0  0  0  0
   -2.6760   -0.2093   -0.6759 H   0  0  0  0  0  0  0  0  0  0  0  0
   -1.5590   -0.5276    1.5225 H   0  0  0  0  0  0  0  0  0  0  0  0
    0.3814   -2.1258    0.8411 H   0  0  0  0  0  0  0  0  0  0  0  0
    0.9052   -0.6488    1.7384 H   0  0  0  0  0  0  0  0  0  0  0  0
  1  2  2  0
  2  3  1  0
  3  4  1  0
  4  5  1  0
  5  6  1  0
  6  7  1  0
  7  8  1  0
  8  2  1  0
  7  5  1  0
  3  9  1  0
  3 10  1  0
  5 11  1  0
  6 12  1  0
  6 13  1  0
  7 14  1  0
  8 15  1  0
  8 16  1  0
M  END
