
     RDKit          3D

 13 15  0  0  0  0  0  0  0  0999 V2000
    2.5193   -0.1632    1.1232 O   0  0  0  0  0  0  0  0  0  0  0  0
    1.3838   -0.3904    0.6550 C   0  0  0  0  0  0  0  0  0  0  0  0
    0.3148   -1.0660    1.2346 O   0  0  0  0  0  0  0  0  0  0  0  0
   -0.7194   -1.0313    0.2676 C   0  0  0  0  0  0  0  0  0  0  0  0
    0.0413   -1.1100   -0.9265 O   0  0  0  0  0  0  0  0  0  0  0  0
    0.8740    0.0127   -0.6715 C   0  0  0  0  0  0  0  0  0  0  0  0
   -0.2250    1.0753   -0.5382 C   0  0  0  0  0  0  0  0  0  0  0  0
   -0.5247    1.3959    0.8695 O   0  0  0  0  0  0  0  0  0  0  0  0
   -1.2619    0.3828    0.1019 C   0  0  0  0  0  0  0  0  0  0  0  0
   -1.4669   -1.7928    0.3573 H   0  0  0  0  0  0  0  0  0  0  0  0
    1.5936    0.2080   -1.4300 H   0  0  0  0  0  0  0  0  0  0  0  0
   -0.1912    1.9781   -1.1291 H   0  0  0  0  0  0  0  0  0  0  0  0
   -2.3377    0.5009    0.0862 H   0  0  0  0  0  0  0  0  0  0  0  0
  1  2  2  0
  2  3  1  0
  3  4  1  0
  4  5  1  0
  5  6  1  0
  6  7  1  0
  7  8  1  0
  8  9  1  0
  6  2  1  0
  9  7  1  0
  9  4  1  0
  4 10  1  0
  6 11  1  0
  7 12  1  0
  9 13  1  0
M  END
