
     RDKit          3D

 17 18  0  0  0  0  0  0  0  0999 V2000
    3.0322    0.5834    0.2866 O   0  0  0  0  0  0  0  0  0  0  0  0
    1.8356    0.5397   -0.1067 C   0  0  0  0  0  0  0  0  0  0  0  0
    1.2041   -0.6957   -0.6495 C   0  0  0  0  0  0  0  0  0  0  0  0
    0.0529   -1.0602    0.2171 C   0  0  0  0  0  0  0  0  0  0  0  0
   -1.3485   -0.9882   -0.1728 C   0  0  0  0  0  0  0  0  0  0  0  0
   -0.7571    0.1711    0.5187 C   0  0  0  0  0  0  0  0  0  0  0  0
   -0.9595    0.3981    1.8718 O   0  0  0  0  0  0  0  0  0  0  0  0
   -0.3847    1.3497   -0.3457 C   0  0  0  0  0  0  0  0  0  0  0  0
    0.9905    1.6526   -0.0682 O   0  0  0  0  0  0  0  0  0  0  0  0
    2.0003   -1.4802   -0.6373 H   0  0  0  0  0  0  0  0  0  0  0  0
    0.9291   -0.5635   -1.7202 H   0  0  0  0  0  0  0  0  0  0  0  0
    0.3310   -1.7433    1.0707 H   0  0  0  0  0  0  0  0  0  0  0  0
   -1.6914   -0.8351   -1.2143 H   0  0  0  0  0  0  0  0  0  0  0  0
   -2.0647   -1.6026    0.4176 H   0  0  0  0  0  0  0  0  0  0  0  0
   -1.6743    1.0259    2.0770 H   0  0  0  0  0  0  0  0  0  0  0  0
   -0.4441    1.0709   -1.4111 H   0  0  0  0  0  0  0  0  0  0  0  0
   -1.0514    2.1775   -0.1336 H   0  0  0  0  0  0  0  0  0  0  0  0
  1  2  2  0
  2  3  1  0
  3  4  1  0
  4  5  1  0
  5  6  1  0
  6  7  1  0
  6  8  1  0
  8  9  1  0
  9  2  1  0
  6  4  1  0
  3 10  1  0
  3 11  1  0
  4 12  1  0
  5 13  1  0
  5 14  1  0
  7 15  1  0
  8 16  1  0
  8 17  1  0
M  END
