
     RDKit          3D

 17 18  0  0  0  0  0  0  0  0999 V2000
    1.0052    2.3050   -1.5164 O   0  0  0  0  0  0  0  0  0  0  0  0
    0.8996    1.2098   -0.9243 C   0  0  0  0  0  0  0  0  0  0  0  0
    1.9197    0.4049   -0.2702 C   0  0  0  0  0  0  0  0  0  0  0  0
    1.4273   -0.8144   -0.0151 C   0  0  0  0  0  0  0  0  0  0  0  0
    0.0409   -0.9378   -0.4721 C   0  0  0  0  0  0  0  0  0  0  0  0
   -0.8486   -1.3930    0.6085 C   0  0  0  0  0  0  0  0  0  0  0  0
   -1.4544   -0.3661    1.1561 C   0  0  0  0  0  0  0  0  0  0  0  0
   -1.0372    0.8891    0.5027 C   0  0  0  0  0  0  0  0  0  0  0  0
   -0.3847    0.4787   -0.7715 C   0  0  0  0  0  0  0  0  0  0  0  0
    2.9218    0.7602   -0.0345 H   0  0  0  0  0  0  0  0  0  0  0  0
    2.0058   -1.5846    0.4673 H   0  0  0  0  0  0  0  0  0  0  0  0
   -0.0763   -1.6031   -1.3516 H   0  0  0  0  0  0  0  0  0  0  0  0
   -0.9800   -2.4632    0.9089 H   0  0  0  0  0  0  0  0  0  0  0  0
   -2.1833   -0.4314    1.9980 H   0  0  0  0  0  0  0  0  0  0  0  0
   -0.3225    1.4694    1.1262 H   0  0  0  0  0  0  0  0  0  0  0  0
   -1.9410    1.4928    0.2587 H   0  0  0  0  0  0  0  0  0  0  0  0
   -0.9923    0.5837   -1.6706 H   0  0  0  0  0  0  0  0  0  0  0  0
  1  2  2  0
  2  3  1  0
  3  4  2  0
  4  5  1  0
  5  6  1  0
  6  7  2  0
  7  8  1  0
  8  9  1  0
  9  2  1  0
  9  5  1  0
  3 10  1  0
  4 11  1  0
  5 12  1  0
  6 13  1  0
  7 14  1  0
  8 15  1  0
  8 16  1  0
  9 17  1  0
M  END
