
     RDKit          3D

 15 16  0  0  0  0  0  0  0  0999 V2000
   -0.9884    1.9015   -1.2103 O   0  0  0  0  0  0  0  0  0  0  0  0
   -0.6125    1.0806   -0.4401 C   0  0  0  0  0  0  0  0  0  0  0  0
   -0.8434    0.8499    1.0192 C   0  0  0  0  0  0  0  0  0  0  0  0
    0.4557    0.7672    1.5156 O   0  0  0  0  0  0  0  0  0  0  0  0
    1.2624    0.2261    0.5070 C   0  0  0  0  0  0  0  0  0  0  0  0
    0.2910   -0.1260   -0.6053 C   0  0  0  0  0  0  0  0  0  0  0  0
    0.7698   -0.3282   -1.8153 O   0  0  0  0  0  0  0  0  0  0  0  0
   -0.6443   -1.1498   -0.0065 C   0  0  0  0  0  0  0  0  0  0  0  0
   -1.3383   -0.4643    0.9999 O   0  0  0  0  0  0  0  0  0  0  0  0
   -1.4813    1.5547    1.4967 H   0  0  0  0  0  0  0  0  0  0  0  0
    1.9060    1.0363    0.1016 H   0  0  0  0  0  0  0  0  0  0  0  0
    1.8414   -0.6389    0.8617 H   0  0  0  0  0  0  0  0  0  0  0  0
    0.9380   -1.2816   -1.9936 H   0  0  0  0  0  0  0  0  0  0  0  0
   -0.1317   -2.0469    0.3579 H   0  0  0  0  0  0  0  0  0  0  0  0
   -1.4245   -1.3805   -0.7884 H   0  0  0  0  0  0  0  0  0  0  0  0
  1  2  2  0
  2  3  1  0
  3  4  1  0
  4  5  1  0
  5  6  1  0
  6  7  1  0
  6  8  1  0
  8  9  1  0
  6  2  1  0
  9  3  1  0
  3 10  1  0
  5 11  1  0
  5 12  1  0
  7 13  1  0
  8 14  1  0
  8 15  1  0
M  END
