
     RDKit          3D

 17 18  0  0  0  0  0  0  0  0999 V2000
    0.7931   -1.5477   -1.7881 O   0  0  0  0  0  0  0  0  0  0  0  0
    0.7984   -0.6897   -0.8731 C   0  0  0  0  0  0  0  0  0  0  0  0
    2.0227   -0.0402   -0.4143 C   0  0  0  0  0  0  0  0  0  0  0  0
    1.7856    0.6737    0.6711 C   0  0  0  0  0  0  0  0  0  0  0  0
    0.3596    0.5820    1.0666 C   0  0  0  0  0  0  0  0  0  0  0  0
   -0.2716   -0.1266   -0.0669 C   0  0  0  0  0  0  0  0  0  0  0  0
   -1.4362   -0.9888    0.2728 C   0  0  0  0  0  0  0  0  0  0  0  0
   -2.2321    0.1707    0.2124 O   0  0  0  0  0  0  0  0  0  0  0  0
   -1.3692    0.6001   -0.7969 C   0  0  0  0  0  0  0  0  0  0  0  0
    3.0213   -0.0989   -0.8631 H   0  0  0  0  0  0  0  0  0  0  0  0
    2.4915    1.2721    1.2487 H   0  0  0  0  0  0  0  0  0  0  0  0
    0.2205   -0.0246    1.9882 H   0  0  0  0  0  0  0  0  0  0  0  0
   -0.0878    1.5988    1.1886 H   0  0  0  0  0  0  0  0  0  0  0  0
   -1.7723   -1.6976   -0.4824 H   0  0  0  0  0  0  0  0  0  0  0  0
   -1.4688   -1.4366    1.2773 H   0  0  0  0  0  0  0  0  0  0  0  0
   -1.6033    0.0662   -1.7425 H   0  0  0  0  0  0  0  0  0  0  0  0
   -1.2514    1.6873   -0.8985 H   0  0  0  0  0  0  0  0  0  0  0  0
  1  2  2  0
  2  3  1  0
  3  4  2  0
  4  5  1  0
  5  6  1  0
  6  7  1  0
  7  8  1  0
  8  9  1  0
  6  2  1  0
  9  6  1  0
  3 10  1  0
  4 11  1  0
  5 12  1  0
  5 13  1  0
  7 14  1  0
  7 15  1  0
  9 16  1  0
  9 17  1  0
M  END
