
     RDKit          3D

 17 18  0  0  0  0  0  0  0  0999 V2000
    3.2490    0.5705   -1.2117 O   0  0  0  0  0  0  0  0  0  0  0  0
    2.1256    0.1990   -0.8434 C   0  0  0  0  0  0  0  0  0  0  0  0
    1.2778   -0.8334   -1.1780 O   0  0  0  0  0  0  0  0  0  0  0  0
    0.8144   -0.8065    0.1613 C   0  0  0  0  0  0  0  0  0  0  0  0
   -0.6075   -1.1693    0.3680 C   0  0  0  0  0  0  0  0  0  0  0  0
   -1.5446   -0.1687   -0.2152 C   0  0  0  0  0  0  0  0  0  0  0  0
   -1.0596    1.2311    0.0926 C   0  0  0  0  0  0  0  0  0  0  0  0
    0.1659    1.4329   -0.4851 O   0  0  0  0  0  0  0  0  0  0  0  0
    1.1154    0.6540    0.1303 C   0  0  0  0  0  0  0  0  0  0  0  0
    1.5401   -1.3217    0.8427 H   0  0  0  0  0  0  0  0  0  0  0  0
   -0.7937   -1.2047    1.4682 H   0  0  0  0  0  0  0  0  0  0  0  0
   -0.7942   -2.1913   -0.0229 H   0  0  0  0  0  0  0  0  0  0  0  0
   -2.5439   -0.3231    0.2335 H   0  0  0  0  0  0  0  0  0  0  0  0
   -1.6531   -0.3483   -1.3053 H   0  0  0  0  0  0  0  0  0  0  0  0
   -1.8307    1.9398   -0.3143 H   0  0  0  0  0  0  0  0  0  0  0  0
   -0.9670    1.3182    1.1820 H   0  0  0  0  0  0  0  0  0  0  0  0
    1.5060    1.0218    1.0976 H   0  0  0  0  0  0  0  0  0  0  0  0
  1  2  2  0
  2  3  1  0
  3  4  1  0
  4  5  1  0
  5  6  1  0
  6  7  1  0
  7  8  1  0
  8  9  1  0
  9  2  1  0
  9  4  1  0
  4 10  1  0
  5 11  1  0
  5 12  1  0
  6 13  1  0
  6 14  1  0
  7 15  1  0
  7 16  1  0
  9 17  1  0
M  END
