
     RDKit          3D

 15 17  0  0  0  0  0  0  0  0999 V2000
   -0.8138   -2.2260   -0.6259 O   0  0  0  0  0  0  0  0  0  0  0  0
   -0.4485   -1.2895    0.0391 C   0  0  0  0  0  0  0  0  0  0  0  0
    0.9700   -1.0936    0.3675 C   0  0  0  0  0  0  0  0  0  0  0  0
    2.0672   -0.8354   -0.2519 O   0  0  0  0  0  0  0  0  0  0  0  0
    1.2536    0.1004   -0.5990 C   0  0  0  0  0  0  0  0  0  0  0  0
    0.4014    1.1323    0.0541 C   0  0  0  0  0  0  0  0  0  0  0  0
   -0.9970    0.8857   -0.4037 C   0  0  0  0  0  0  0  0  0  0  0  0
   -2.1459    0.6405    0.1193 O   0  0  0  0  0  0  0  0  0  0  0  0
   -1.3662   -0.2779    0.5723 C   0  0  0  0  0  0  0  0  0  0  0  0
    1.0962   -0.8559    1.4733 H   0  0  0  0  0  0  0  0  0  0  0  0
    0.9293   -0.0604   -1.6763 H   0  0  0  0  0  0  0  0  0  0  0  0
    0.4978    1.2079    1.1361 H   0  0  0  0  0  0  0  0  0  0  0  0
    0.7160    2.1306   -0.3672 H   0  0  0  0  0  0  0  0  0  0  0  0
   -1.0159    0.6131   -1.5074 H   0  0  0  0  0  0  0  0  0  0  0  0
   -1.1443   -0.0717    1.6698 H   0  0  0  0  0  0  0  0  0  0  0  0
  1  2  2  0
  2  3  1  0
  3  4  1  0
  4  5  1  0
  5  6  1  0
  6  7  1  0
  7  8  1  0
  8  9  1  0
  9  2  1  0
  5  3  1  0
  9  7  1  0
  3 10  1  0
  5 11  1  0
  6 12  1  0
  6 13  1  0
  7 14  1  0
  9 15  1  0
M  END
