
     RDKit          3D

 19 19  0  0  0  0  0  0  0  0999 V2000
    0.9273   -2.0135   -1.2727 O   0  0  0  0  0  0  0  0  0  0  0  0
    0.3634   -1.0890   -0.7169 C   0  0  0  0  0  0  0  0  0  0  0  0
   -0.9248   -0.4333   -1.0488 C   0  0  0  0  0  0  0  0  0  0  0  0
   -1.3472    0.2831    0.2062 C   0  0  0  0  0  0  0  0  0  0  0  0
   -2.6625   -0.0907    0.4730 O   0  0  0  0  0  0  0  0  0  0  0  0
   -0.3968   -0.1592    1.2768 C   0  0  0  0  0  0  0  0  0  0  0  0
    0.8779   -0.3745    0.4894 C   0  0  0  0  0  0  0  0  0  0  0  0
    1.4682    0.9430    0.0408 C   0  0  0  0  0  0  0  0  0  0  0  0
    2.5043    0.6241   -0.8543 O   0  0  0  0  0  0  0  0  0  0  0  0
   -1.6408   -1.2079   -1.3705 H   0  0  0  0  0  0  0  0  0  0  0  0
   -0.8057    0.3233   -1.8588 H   0  0  0  0  0  0  0  0  0  0  0  0
   -1.2590    1.3930    0.0930 H   0  0  0  0  0  0  0  0  0  0  0  0
   -3.2283    0.4301   -0.1632 H   0  0  0  0  0  0  0  0  0  0  0  0
   -0.2221    0.6472    2.0194 H   0  0  0  0  0  0  0  0  0  0  0  0
   -0.6908   -1.1130    1.7504 H   0  0  0  0  0  0  0  0  0  0  0  0
    1.6067   -0.9928    1.0507 H   0  0  0  0  0  0  0  0  0  0  0  0
    0.6919    1.5229   -0.4722 H   0  0  0  0  0  0  0  0  0  0  0  0
    1.8228    1.5246    0.8995 H   0  0  0  0  0  0  0  0  0  0  0  0
    2.9154   -0.2174   -0.5418 H   0  0  0  0  0  0  0  0  0  0  0  0
  1  2  2  0
  2  3  1  0
  3  4  1  0
  4  5  1  0
  4  6  1  0
  6  7  1  0
  7  8  1  0
  8  9  1  0
  7  2  1  0
  3 10  1  0
  3 11  1  0
  4 12  1  0
  5 13  1  0
  6 14  1  0
  6 15  1  0
  7 16  1  0
  8 17  1  0
  8 18  1  0
  9 19  1  0
M  END
