
     RDKit          3D

 12 12  0  0  0  0  0  0  0  0999 V2000
   -0.5605    1.9186   -1.3860 O   0  0  0  0  0  0  0  0  0  0  0  0
   -0.3680    0.9622   -0.6831 C   0  0  0  0  0  0  0  0  0  0  0  0
   -1.0860    0.1301    0.2933 C   0  0  0  0  0  0  0  0  0  0  0  0
   -0.0602   -0.9784    0.0917 C   0  0  0  0  0  0  0  0  0  0  0  0
    0.8296    0.1021   -0.4734 C   0  0  0  0  0  0  0  0  0  0  0  0
    1.7203    0.5585    0.4777 O   0  0  0  0  0  0  0  0  0  0  0  0
   -2.0925   -0.2140    0.0150 H   0  0  0  0  0  0  0  0  0  0  0  0
   -1.0709    0.6017    1.2899 H   0  0  0  0  0  0  0  0  0  0  0  0
    0.2324   -1.3735    1.0832 H   0  0  0  0  0  0  0  0  0  0  0  0
   -0.4103   -1.7248   -0.6348 H   0  0  0  0  0  0  0  0  0  0  0  0
    1.3062   -0.1277   -1.4366 H   0  0  0  0  0  0  0  0  0  0  0  0
    1.5599    0.1450    1.3632 H   0  0  0  0  0  0  0  0  0  0  0  0
  1  2  2  0
  2  3  1  0
  3  4  1  0
  4  5  1  0
  5  6  1  0
  5  2  1  0
  3  7  1  0
  3  8  1  0
  4  9  1  0
  4 10  1  0
  5 11  1  0
  6 12  1  0
M  END
