
     RDKit          3D

 17 18  0  0  0  0  0  0  0  0999 V2000
    1.4894   -1.7599    1.6313 O   0  0  0  0  0  0  0  0  0  0  0  0
    0.9682   -0.9572    0.8260 C   0  0  0  0  0  0  0  0  0  0  0  0
    1.7321    0.0880    0.1498 C   0  0  0  0  0  0  0  0  0  0  0  0
    1.1130    0.9256   -0.6599 C   0  0  0  0  0  0  0  0  0  0  0  0
   -0.3438    0.7730   -0.9286 C   0  0  0  0  0  0  0  0  0  0  0  0
   -1.0911    1.1740    0.3202 C   0  0  0  0  0  0  0  0  0  0  0  0
   -1.1208    0.1404    1.1511 C   0  0  0  0  0  0  0  0  0  0  0  0
   -0.4829   -1.0461    0.5255 C   0  0  0  0  0  0  0  0  0  0  0  0
   -0.6305   -0.7245   -0.9481 C   0  0  0  0  0  0  0  0  0  0  0  0
    2.8175    0.1840    0.3086 H   0  0  0  0  0  0  0  0  0  0  0  0
    1.6209    1.7552   -1.1646 H   0  0  0  0  0  0  0  0  0  0  0  0
   -0.6878    1.2937   -1.8145 H   0  0  0  0  0  0  0  0  0  0  0  0
   -1.5198    2.1575    0.4756 H   0  0  0  0  0  0  0  0  0  0  0  0
   -1.5433    0.1471    2.1393 H   0  0  0  0  0  0  0  0  0  0  0  0
   -0.9359   -1.9902    0.8083 H   0  0  0  0  0  0  0  0  0  0  0  0
   -1.6084   -0.9596   -1.3552 H   0  0  0  0  0  0  0  0  0  0  0  0
    0.2231   -1.2011   -1.4648 H   0  0  0  0  0  0  0  0  0  0  0  0
  1  2  2  0
  2  3  1  0
  3  4  2  0
  4  5  1  0
  5  6  1  0
  6  7  2  0
  7  8  1  0
  8  9  1  0
  8  2  1  0
  9  5  1  0
  3 10  1  0
  4 11  1  0
  5 12  1  0
  6 13  1  0
  7 14  1  0
  8 15  1  0
  9 16  1  0
  9 17  1  0
M  END
