
     RDKit          3D

 19 19  0  0  0  0  0  0  0  0999 V2000
   -3.2661    0.2650   -1.8008 O   0  0  0  0  0  0  0  0  0  0  0  0
   -2.4593    0.1261   -0.9038 C   0  0  0  0  0  0  0  0  0  0  0  0
   -2.0204   -0.9665   -0.0104 C   0  0  0  0  0  0  0  0  0  0  0  0
   -0.6964   -0.2652    0.1462 C   0  0  0  0  0  0  0  0  0  0  0  0
    0.2423   -0.5024   -0.8140 O   0  0  0  0  0  0  0  0  0  0  0  0
    1.5413   -0.6139   -0.4234 C   0  0  0  0  0  0  0  0  0  0  0  0
    1.9937    0.6682    0.2169 C   0  0  0  0  0  0  0  0  0  0  0  0
    3.3236    0.5619    0.6178 O   0  0  0  0  0  0  0  0  0  0  0  0
   -1.4732    1.0089   -0.2273 C   0  0  0  0  0  0  0  0  0  0  0  0
   -1.9970   -1.9566   -0.4714 H   0  0  0  0  0  0  0  0  0  0  0  0
   -2.5467   -0.9784    0.9689 H   0  0  0  0  0  0  0  0  0  0  0  0
   -0.3148   -0.1948    1.1659 H   0  0  0  0  0  0  0  0  0  0  0  0
    1.6135   -1.4048    0.3561 H   0  0  0  0  0  0  0  0  0  0  0  0
    2.1426   -0.8705   -1.3254 H   0  0  0  0  0  0  0  0  0  0  0  0
    1.4004    0.8420    1.1333 H   0  0  0  0  0  0  0  0  0  0  0  0
    1.8146    1.5113   -0.4744 H   0  0  0  0  0  0  0  0  0  0  0  0
    3.5374   -0.3925    0.6645 H   0  0  0  0  0  0  0  0  0  0  0  0
   -0.9243    1.7076   -0.8602 H   0  0  0  0  0  0  0  0  0  0  0  0
   -1.9110    1.4548    0.6857 H   0  0  0  0  0  0  0  0  0  0  0  0
  1  2  2  0
  2  3  1  0
  3  4  1  0
  4  5  1  0
  5  6  1  0
  6  7  1  0
  7  8  1  0
  4  9  1  0
  9  2  1  0
  3 10  1  0
  3 11  1  0
  4 12  1  0
  6 13  1  0
  6 14  1  0
  7 15  1  0
  7 16  1  0
  8 17  1  0
  9 18  1  0
  9 19  1  0
M  END
