
     RDKit          3D

 19 21  0  0  0  0  0  0  0  0999 V2000
   -1.0548   -0.4237    2.5335 O   0  0  0  0  0  0  0  0  0  0  0  0
   -0.7352   -0.1662    1.4102 C   0  0  0  0  0  0  0  0  0  0  0  0
   -0.3756   -1.1679    0.3635 C   0  0  0  0  0  0  0  0  0  0  0  0
    1.1414   -1.0467    0.2158 C   0  0  0  0  0  0  0  0  0  0  0  0
    1.4172    0.2719   -0.4230 C   0  0  0  0  0  0  0  0  0  0  0  0
    0.3667    1.2965   -0.2780 C   0  0  0  0  0  0  0  0  0  0  0  0
   -0.9994    0.8924   -0.6320 C   0  0  0  0  0  0  0  0  0  0  0  0
   -1.0635   -0.5877   -0.8552 C   0  0  0  0  0  0  0  0  0  0  0  0
   -0.6143    1.1469    0.7802 C   0  0  0  0  0  0  0  0  0  0  0  0
   -0.6958   -2.1797    0.5969 H   0  0  0  0  0  0  0  0  0  0  0  0
    1.5785   -1.9119   -0.2916 H   0  0  0  0  0  0  0  0  0  0  0  0
    1.5838   -1.0387    1.2554 H   0  0  0  0  0  0  0  0  0  0  0  0
    1.5723    0.0881   -1.5263 H   0  0  0  0  0  0  0  0  0  0  0  0
    2.3716    0.6801    0.0025 H   0  0  0  0  0  0  0  0  0  0  0  0
    0.6697    2.3267   -0.5468 H   0  0  0  0  0  0  0  0  0  0  0  0
   -1.6532    1.5817   -1.1646 H   0  0  0  0  0  0  0  0  0  0  0  0
   -2.0633   -0.9882   -1.0062 H   0  0  0  0  0  0  0  0  0  0  0  0
   -0.4505   -0.7933   -1.7651 H   0  0  0  0  0  0  0  0  0  0  0  0
   -0.9955    2.0196    1.3307 H   0  0  0  0  0  0  0  0  0  0  0  0
  1  2  2  0
  2  3  1  0
  3  4  1  0
  4  5  1  0
  5  6  1  0
  6  7  1  0
  7  8  1  0
  7  9  1  0
  9  2  1  0
  8  3  1  0
  9  6  1  0
  3 10  1  0
  4 11  1  0
  4 12  1  0
  5 13  1  0
  5 14  1  0
  6 15  1  0
  7 16  1  0
  8 17  1  0
  8 18  1  0
  9 19  1  0
M  END
