
     RDKit          3D

 19 20  0  0  0  0  0  0  0  0999 V2000
    2.4980   -0.2134   -1.1105 O   0  0  0  0  0  0  0  0  0  0  0  0
    1.4566   -0.0335   -0.5486 C   0  0  0  0  0  0  0  0  0  0  0  0
    0.8203    1.2885   -0.5625 C   0  0  0  0  0  0  0  0  0  0  0  0
   -0.6706    1.1367   -0.4010 C   0  0  0  0  0  0  0  0  0  0  0  0
   -1.1689   -0.2008   -0.9378 C   0  0  0  0  0  0  0  0  0  0  0  0
   -0.6652   -0.8022    0.3646 C   0  0  0  0  0  0  0  0  0  0  0  0
   -0.8937    0.5483    0.9799 C   0  0  0  0  0  0  0  0  0  0  0  0
    0.7897   -1.1277    0.1679 C   0  0  0  0  0  0  0  0  0  0  0  0
    1.4183   -1.3633    1.3985 O   0  0  0  0  0  0  0  0  0  0  0  0
    1.1787    1.8313    0.3601 H   0  0  0  0  0  0  0  0  0  0  0  0
    1.1043    1.9243   -1.4089 H   0  0  0  0  0  0  0  0  0  0  0  0
   -1.2831    2.0026   -0.6555 H   0  0  0  0  0  0  0  0  0  0  0  0
   -0.6810   -0.5552   -1.8446 H   0  0  0  0  0  0  0  0  0  0  0  0
   -2.2737   -0.1883   -0.9285 H   0  0  0  0  0  0  0  0  0  0  0  0
   -1.2329   -1.6380    0.7621 H   0  0  0  0  0  0  0  0  0  0  0  0
   -0.1831    0.8692    1.7463 H   0  0  0  0  0  0  0  0  0  0  0  0
   -1.9679    0.6528    1.2565 H   0  0  0  0  0  0  0  0  0  0  0  0
    0.8433   -2.0338   -0.4609 H   0  0  0  0  0  0  0  0  0  0  0  0
    0.9107   -2.0975    1.8229 H   0  0  0  0  0  0  0  0  0  0  0  0
  1  2  2  0
  2  3  1  0
  3  4  1  0
  4  5  1  0
  5  6  1  0
  6  7  1  0
  6  8  1  0
  8  9  1  0
  8  2  1  0
  7  4  1  0
  3 10  1  0
  3 11  1  0
  4 12  1  0
  5 13  1  0
  5 14  1  0
  6 15  1  0
  7 16  1  0
  7 17  1  0
  8 18  1  0
  9 19  1  0
M  END
