
     RDKit          3D

 15 15  0  0  0  0  0  0  0  0999 V2000
   -2.3132    0.4800    0.5638 O   0  0  0  0  0  0  0  0  0  0  0  0
   -1.2349    0.3384   -0.0359 C   0  0  0  0  0  0  0  0  0  0  0  0
   -0.9775   -1.0643   -0.3789 C   0  0  0  0  0  0  0  0  0  0  0  0
    0.3262   -1.3543   -0.7046 O   0  0  0  0  0  0  0  0  0  0  0  0
    1.2296   -1.0307    0.2977 C   0  0  0  0  0  0  0  0  0  0  0  0
    1.6147    0.3732    0.0945 C   0  0  0  0  0  0  0  0  0  0  0  0
    2.8081    0.6293    0.3280 O   0  0  0  0  0  0  0  0  0  0  0  0
    0.8561    1.4399   -0.3133 O   0  0  0  0  0  0  0  0  0  0  0  0
   -0.5430    1.6204   -0.2202 C   0  0  0  0  0  0  0  0  0  0  0  0
   -1.3474   -1.7028    0.4640 H   0  0  0  0  0  0  0  0  0  0  0  0
   -1.6069   -1.3327   -1.2528 H   0  0  0  0  0  0  0  0  0  0  0  0
    2.1170   -1.7060    0.2920 H   0  0  0  0  0  0  0  0  0  0  0  0
    0.6706   -1.1091    1.2640 H   0  0  0  0  0  0  0  0  0  0  0  0
   -0.8963    2.1805   -1.1098 H   0  0  0  0  0  0  0  0  0  0  0  0
   -0.7031    2.2382    0.7115 H   0  0  0  0  0  0  0  0  0  0  0  0
  1  2  2  0
  2  3  1  0
  3  4  1  0
  4  5  1  0
  5  6  1  0
  6  7  2  0
  6  8  1  0
  8  9  1  0
  9  2  1  0
  3 10  1  0
  3 11  1  0
  5 12  1  0
  5 13  1  0
  9 14  1  0
  9 15  1  0
M  END
