
     RDKit          3D

 17 19  0  0  0  0  0  0  0  0999 V2000
    0.8521   -2.0596    1.2336 O   0  0  0  0  0  0  0  0  0  0  0  0
    0.3229   -1.0976    0.7282 C   0  0  0  0  0  0  0  0  0  0  0  0
   -0.9049   -1.2069   -0.0956 C   0  0  0  0  0  0  0  0  0  0  0  0
   -1.9308   -0.1431   -0.0764 C   0  0  0  0  0  0  0  0  0  0  0  0
   -0.9762   -0.2182   -1.1971 C   0  0  0  0  0  0  0  0  0  0  0  0
    0.1111    0.6112   -1.3203 O   0  0  0  0  0  0  0  0  0  0  0  0
    0.5930    1.1515   -0.1788 C   0  0  0  0  0  0  0  0  0  0  0  0
    2.0469    0.7391    0.1397 C   0  0  0  0  0  0  0  0  0  0  0  0
    0.9097    0.2394    0.9305 C   0  0  0  0  0  0  0  0  0  0  0  0
   -1.2528   -2.2355   -0.3202 H   0  0  0  0  0  0  0  0  0  0  0  0
   -1.8485    0.7475    0.5705 H   0  0  0  0  0  0  0  0  0  0  0  0
   -2.9826   -0.4249   -0.3039 H   0  0  0  0  0  0  0  0  0  0  0  0
   -1.3633   -0.5814   -2.1845 H   0  0  0  0  0  0  0  0  0  0  0  0
    0.3388    2.2025    0.0964 H   0  0  0  0  0  0  0  0  0  0  0  0
    2.6878    1.5265    0.6034 H   0  0  0  0  0  0  0  0  0  0  0  0
    2.5838    0.1284   -0.5887 H   0  0  0  0  0  0  0  0  0  0  0  0
    0.8130    0.6211    1.9633 H   0  0  0  0  0  0  0  0  0  0  0  0
  1  2  2  0
  2  3  1  0
  3  4  1  0
  4  5  1  0
  5  6  1  0
  6  7  1  0
  7  8  1  0
  8  9  1  0
  9  2  1  0
  5  3  1  0
  9  7  1  0
  3 10  1  0
  4 11  1  0
  4 12  1  0
  5 13  1  0
  7 14  1  0
  8 15  1  0
  8 16  1  0
  9 17  1  0
M  END
