
     RDKit          3D

 13 14  0  0  0  0  0  0  0  0999 V2000
   -0.1417   -2.2340   -1.5096 O   0  0  0  0  0  0  0  0  0  0  0  0
    0.1959   -1.4581   -0.5840 C   0  0  0  0  0  0  0  0  0  0  0  0
    1.4444   -1.1746   -0.0508 O   0  0  0  0  0  0  0  0  0  0  0  0
    0.8672   -0.1085    0.6689 C   0  0  0  0  0  0  0  0  0  0  0  0
    1.0362    1.1808    0.0134 C   0  0  0  0  0  0  0  0  0  0  0  0
    2.1171    1.8080   -0.1020 O   0  0  0  0  0  0  0  0  0  0  0  0
   -0.1790    1.6349   -0.4771 O   0  0  0  0  0  0  0  0  0  0  0  0
   -1.1759    0.6449   -0.3006 C   0  0  0  0  0  0  0  0  0  0  0  0
   -0.5300   -0.5541    0.3004 C   0  0  0  0  0  0  0  0  0  0  0  0
    1.0814   -0.1821    1.7397 H   0  0  0  0  0  0  0  0  0  0  0  0
   -1.9124    1.0416    0.4285 H   0  0  0  0  0  0  0  0  0  0  0  0
   -1.6887    0.4034   -1.2498 H   0  0  0  0  0  0  0  0  0  0  0  0
   -1.1144   -1.0023    1.1230 H   0  0  0  0  0  0  0  0  0  0  0  0
  1  2  2  0
  2  3  1  0
  3  4  1  0
  4  5  1  0
  5  6  2  0
  5  7  1  0
  7  8  1  0
  8  9  1  0
  9  2  1  0
  9  4  1  0
  4 10  1  0
  8 11  1  0
  8 12  1  0
  9 13  1  0
M  END
