
     RDKit          3D

 15 17  0  0  0  0  0  0  0  0999 V2000
   -0.0752    1.0818   -1.8819 O   0  0  0  0  0  0  0  0  0  0  0  0
   -0.5939    0.4564   -0.9720 C   0  0  0  0  0  0  0  0  0  0  0  0
   -2.0101    0.1562   -0.5309 C   0  0  0  0  0  0  0  0  0  0  0  0
   -1.4034   -0.4883    0.6822 C   0  0  0  0  0  0  0  0  0  0  0  0
   -0.6550   -1.7039    0.2616 O   0  0  0  0  0  0  0  0  0  0  0  0
   -0.1619   -0.3512    0.1995 C   0  0  0  0  0  0  0  0  0  0  0  0
    1.1725   -0.1094    0.8335 C   0  0  0  0  0  0  0  0  0  0  0  0
    2.2827    0.1816   -0.1514 C   0  0  0  0  0  0  0  0  0  0  0  0
    1.6649    1.1938    0.7798 O   0  0  0  0  0  0  0  0  0  0  0  0
   -2.5332   -0.5438   -1.2248 H   0  0  0  0  0  0  0  0  0  0  0  0
   -2.5836    1.0636   -0.2586 H   0  0  0  0  0  0  0  0  0  0  0  0
   -1.9453   -0.7103    1.5788 H   0  0  0  0  0  0  0  0  0  0  0  0
    1.4500   -0.7259    1.7079 H   0  0  0  0  0  0  0  0  0  0  0  0
    2.0556    0.4225   -1.1999 H   0  0  0  0  0  0  0  0  0  0  0  0
    3.3357    0.0766    0.1763 H   0  0  0  0  0  0  0  0  0  0  0  0
  1  2  2  0
  2  3  1  0
  3  4  1  0
  4  5  1  0
  5  6  1  0
  6  7  1  0
  7  8  1  0
  8  9  1  0
  6  2  1  0
  9  7  1  0
  6  4  1  0
  3 10  1  0
  3 11  1  0
  4 12  1  0
  7 13  1  0
  8 14  1  0
  8 15  1  0
M  END
