
     RDKit          3D

 15 17  0  0  0  0  0  0  0  0999 V2000
    0.2000   -2.1470   -0.9102 O   0  0  0  0  0  0  0  0  0  0  0  0
    0.3364   -1.1116   -0.3019 C   0  0  0  0  0  0  0  0  0  0  0  0
    1.6229   -0.5157    0.1159 C   0  0  0  0  0  0  0  0  0  0  0  0
    1.3081    0.9633    0.1204 C   0  0  0  0  0  0  0  0  0  0  0  0
    0.5904    1.4008   -1.0212 O   0  0  0  0  0  0  0  0  0  0  0  0
   -0.0731    1.1003    0.2874 C   0  0  0  0  0  0  0  0  0  0  0  0
   -0.7424   -0.2409    0.1427 C   0  0  0  0  0  0  0  0  0  0  0  0
   -2.1153   -0.3151   -0.1786 C   0  0  0  0  0  0  0  0  0  0  0  0
   -1.6423   -0.6882    1.0823 O   0  0  0  0  0  0  0  0  0  0  0  0
    1.9370   -0.8154    1.1365 H   0  0  0  0  0  0  0  0  0  0  0  0
    2.4612   -0.7657   -0.5610 H   0  0  0  0  0  0  0  0  0  0  0  0
    2.0443    1.6586    0.5475 H   0  0  0  0  0  0  0  0  0  0  0  0
   -0.6784    1.9769    0.5354 H   0  0  0  0  0  0  0  0  0  0  0  0
   -2.7541    0.5924   -0.1264 H   0  0  0  0  0  0  0  0  0  0  0  0
   -2.4946   -1.0927   -0.8687 H   0  0  0  0  0  0  0  0  0  0  0  0
  1  2  2  0
  2  3  1  0
  3  4  1  0
  4  5  1  0
  5  6  1  0
  6  7  1  0
  7  8  1  0
  8  9  1  0
  7  2  1  0
  6  4  1  0
  9  7  1  0
  3 10  1  0
  3 11  1  0
  4 12  1  0
  6 13  1  0
  8 14  1  0
  8 15  1  0
M  END
