
     RDKit          3D

 17 17  0  0  0  0  0  0  0  0999 V2000
   -1.1978    1.7290   -2.1111 O   0  0  0  0  0  0  0  0  0  0  0  0
   -0.9972    0.7359   -1.3464 C   0  0  0  0  0  0  0  0  0  0  0  0
   -1.3622    0.6867    0.0926 C   0  0  0  0  0  0  0  0  0  0  0  0
   -0.7434   -0.5865    0.5964 C   0  0  0  0  0  0  0  0  0  0  0  0
   -0.2132   -0.4912    1.8584 O   0  0  0  0  0  0  0  0  0  0  0  0
    0.2917   -0.8671   -0.4727 C   0  0  0  0  0  0  0  0  0  0  0  0
    1.4591    0.1024   -0.3806 C   0  0  0  0  0  0  0  0  0  0  0  0
    2.2606   -0.1226    0.7090 O   0  0  0  0  0  0  0  0  0  0  0  0
   -0.4177   -0.4918   -1.6402 O   0  0  0  0  0  0  0  0  0  0  0  0
   -2.4787    0.6048    0.1954 H   0  0  0  0  0  0  0  0  0  0  0  0
   -0.9587    1.5196    0.6771 H   0  0  0  0  0  0  0  0  0  0  0  0
   -1.4942   -1.4027    0.5306 H   0  0  0  0  0  0  0  0  0  0  0  0
   -0.2339   -1.3717    2.3236 H   0  0  0  0  0  0  0  0  0  0  0  0
    0.6107   -1.9117   -0.4810 H   0  0  0  0  0  0  0  0  0  0  0  0
    2.0016    0.0047   -1.3620 H   0  0  0  0  0  0  0  0  0  0  0  0
    1.0336    1.1209   -0.3762 H   0  0  0  0  0  0  0  0  0  0  0  0
    2.4397    0.7413    1.1871 H   0  0  0  0  0  0  0  0  0  0  0  0
  1  2  2  0
  2  3  1  0
  3  4  1  0
  4  5  1  0
  4  6  1  0
  6  7  1  0
  7  8  1  0
  6  9  1  0
  9  2  1  0
  3 10  1  0
  3 11  1  0
  4 12  1  0
  5 13  1  0
  6 14  1  0
  7 15  1  0
  7 16  1  0
  8 17  1  0
M  END
