
     RDKit          3D

 19 20  0  0  0  0  0  0  0  0999 V2000
    0.8286   -2.3149    1.1420 O   0  0  0  0  0  0  0  0  0  0  0  0
    0.6270   -1.3243    0.4715 C   0  0  0  0  0  0  0  0  0  0  0  0
    1.8085   -0.5146    0.0864 C   0  0  0  0  0  0  0  0  0  0  0  0
    1.4753    0.9160   -0.1325 C   0  0  0  0  0  0  0  0  0  0  0  0
    0.3262    1.5676   -0.2542 C   0  0  0  0  0  0  0  0  0  0  0  0
   -1.0238    0.9636   -0.2141 C   0  0  0  0  0  0  0  0  0  0  0  0
   -1.2562    0.0934    0.9847 C   0  0  0  0  0  0  0  0  0  0  0  0
   -0.7951   -1.0937    0.1491 C   0  0  0  0  0  0  0  0  0  0  0  0
   -1.0121   -0.2758   -1.0854 C   0  0  0  0  0  0  0  0  0  0  0  0
    2.1874   -0.9092   -0.8722 H   0  0  0  0  0  0  0  0  0  0  0  0
    2.5591   -0.6117    0.8745 H   0  0  0  0  0  0  0  0  0  0  0  0
    2.3525    1.5472   -0.2064 H   0  0  0  0  0  0  0  0  0  0  0  0
    0.3734    2.6423   -0.3965 H   0  0  0  0  0  0  0  0  0  0  0  0
   -1.8249    1.6893   -0.4264 H   0  0  0  0  0  0  0  0  0  0  0  0
   -0.5920    0.3372    1.8333 H   0  0  0  0  0  0  0  0  0  0  0  0
   -2.3279    0.0011    1.1988 H   0  0  0  0  0  0  0  0  0  0  0  0
   -1.4633   -1.9628    0.2461 H   0  0  0  0  0  0  0  0  0  0  0  0
   -2.0065   -0.4346   -1.5479 H   0  0  0  0  0  0  0  0  0  0  0  0
   -0.2364   -0.3162   -1.8508 H   0  0  0  0  0  0  0  0  0  0  0  0
  1  2  2  0
  2  3  1  0
  3  4  1  0
  4  5  2  0
  5  6  1  0
  6  7  1  0
  7  8  1  0
  8  9  1  0
  8  2  1  0
  9  6  1  0
  3 10  1  0
  3 11  1  0
  4 12  1  0
  5 13  1  0
  6 14  1  0
  7 15  1  0
  7 16  1  0
  8 17  1  0
  9 18  1  0
  9 19  1  0
M  END
