
     RDKit          3D

 17 18  0  0  0  0  0  0  0  0999 V2000
   -1.2305   -1.4396   -1.6254 O   0  0  0  0  0  0  0  0  0  0  0  0
   -1.2656   -0.6897   -0.6298 C   0  0  0  0  0  0  0  0  0  0  0  0
   -2.3993   -0.0762   -0.1208 O   0  0  0  0  0  0  0  0  0  0  0  0
   -1.9093    0.8015    0.9083 C   0  0  0  0  0  0  0  0  0  0  0  0
   -0.7931    0.1207    1.3898 O   0  0  0  0  0  0  0  0  0  0  0  0
   -0.1663   -0.2827    0.2195 C   0  0  0  0  0  0  0  0  0  0  0  0
    0.7871    0.7482   -0.3208 C   0  0  0  0  0  0  0  0  0  0  0  0
    1.8432    0.0643    0.5603 C   0  0  0  0  0  0  0  0  0  0  0  0
    0.9914   -1.2050    0.3838 C   0  0  0  0  0  0  0  0  0  0  0  0
   -1.5874    1.7235    0.3705 H   0  0  0  0  0  0  0  0  0  0  0  0
   -2.6545    0.9918    1.6799 H   0  0  0  0  0  0  0  0  0  0  0  0
    0.9900    0.5884   -1.3864 H   0  0  0  0  0  0  0  0  0  0  0  0
    0.5197    1.7621   -0.0012 H   0  0  0  0  0  0  0  0  0  0  0  0
    2.8387    0.0124    0.1351 H   0  0  0  0  0  0  0  0  0  0  0  0
    1.7293    0.4052    1.6005 H   0  0  0  0  0  0  0  0  0  0  0  0
    1.2952   -1.6986   -0.5406 H   0  0  0  0  0  0  0  0  0  0  0  0
    1.0113   -1.8264    1.3000 H   0  0  0  0  0  0  0  0  0  0  0  0
  1  2  2  0
  2  3  1  0
  3  4  1  0
  4  5  1  0
  5  6  1  0
  6  7  1  0
  7  8  1  0
  8  9  1  0
  6  2  1  0
  9  6  1  0
  4 10  1  0
  4 11  1  0
  7 12  1  0
  7 13  1  0
  8 14  1  0
  8 15  1  0
  9 16  1  0
  9 17  1  0
M  END
