
     RDKit          3D

 15 15  0  0  0  0  0  0  0  0999 V2000
   -2.7587   -1.8168   -0.0861 O   0  0  0  0  0  0  0  0  0  0  0  0
   -2.1580   -0.7553    0.1440 C   0  0  0  0  0  0  0  0  0  0  0  0
   -1.9329    0.0841    1.2424 O   0  0  0  0  0  0  0  0  0  0  0  0
   -2.0150    1.1652    0.3029 C   0  0  0  0  0  0  0  0  0  0  0  0
   -1.3422    0.2039   -0.6491 C   0  0  0  0  0  0  0  0  0  0  0  0
    0.1056    0.0988   -0.4019 C   0  0  0  0  0  0  0  0  0  0  0  0
    1.2995   -0.0051   -0.1961 C   0  0  0  0  0  0  0  0  0  0  0  0
    2.7331   -0.1236    0.0759 C   0  0  0  0  0  0  0  0  0  0  0  0
    3.0206   -1.4739    0.1801 O   0  0  0  0  0  0  0  0  0  0  0  0
   -1.4164    2.0378    0.5519 H   0  0  0  0  0  0  0  0  0  0  0  0
   -3.0707    1.3203    0.0425 H   0  0  0  0  0  0  0  0  0  0  0  0
   -1.5970    0.2870   -1.6981 H   0  0  0  0  0  0  0  0  0  0  0  0
    2.9972    0.3421    1.0559 H   0  0  0  0  0  0  0  0  0  0  0  0
    3.3550    0.3826   -0.6801 H   0  0  0  0  0  0  0  0  0  0  0  0
    2.7799   -1.7470    1.1226 H   0  0  0  0  0  0  0  0  0  0  0  0
  1  2  2  0
  2  3  1  0
  3  4  1  0
  4  5  1  0
  5  6  1  0
  6  7  3  0
  7  8  1  0
  8  9  1  0
  5  2  1  0
  4 10  1  0
  4 11  1  0
  5 12  1  0
  8 13  1  0
  8 14  1  0
  9 15  1  0
M  END
