
     RDKit          3D

 15 15  0  0  0  0  0  0  0  0999 V2000
    2.8367   -0.0335    0.8190 O   0  0  0  0  0  0  0  0  0  0  0  0
    1.6441    0.0745    0.4599 C   0  0  0  0  0  0  0  0  0  0  0  0
    1.0163    1.3317    0.0567 C   0  0  0  0  0  0  0  0  0  0  0  0
   -0.2514    1.3628   -0.3094 C   0  0  0  0  0  0  0  0  0  0  0  0
   -1.1619    0.2033   -0.3610 C   0  0  0  0  0  0  0  0  0  0  0  0
   -1.8645    0.1697    0.8492 O   0  0  0  0  0  0  0  0  0  0  0  0
   -0.3612   -1.0391   -0.5517 C   0  0  0  0  0  0  0  0  0  0  0  0
    0.7620   -1.1104    0.4201 C   0  0  0  0  0  0  0  0  0  0  0  0
    0.9858   -2.0849    1.1733 O   0  0  0  0  0  0  0  0  0  0  0  0
    1.6423    2.2288    0.0746 H   0  0  0  0  0  0  0  0  0  0  0  0
   -0.6458    2.3314   -0.5950 H   0  0  0  0  0  0  0  0  0  0  0  0
   -1.8760    0.2776   -1.2313 H   0  0  0  0  0  0  0  0  0  0  0  0
   -1.7910   -0.7231    1.2868 H   0  0  0  0  0  0  0  0  0  0  0  0
   -0.9616   -1.9661   -0.4814 H   0  0  0  0  0  0  0  0  0  0  0  0
    0.0262   -1.0226   -1.6100 H   0  0  0  0  0  0  0  0  0  0  0  0
  1  2  2  0
  2  3  1  0
  3  4  2  0
  4  5  1  0
  5  6  1  0
  5  7  1  0
  7  8  1  0
  8  9  2  0
  8  2  1  0
  3 10  1  0
  4 11  1  0
  5 12  1  0
  6 13  1  0
  7 14  1  0
  7 15  1  0
M  END
