
     RDKit          3D

 13 14  0  0  0  0  0  0  0  0999 V2000
    1.0512   -1.8079    1.1651 O   0  0  0  0  0  0  0  0  0  0  0  0
    0.5974   -0.9632    0.4258 C   0  0  0  0  0  0  0  0  0  0  0  0
    1.2177    0.3016   -0.0085 C   0  0  0  0  0  0  0  0  0  0  0  0
    0.0763    1.2552   -0.0875 C   0  0  0  0  0  0  0  0  0  0  0  0
   -0.7977    1.2947   -1.1313 O   0  0  0  0  0  0  0  0  0  0  0  0
   -1.1791    0.4259   -0.1453 C   0  0  0  0  0  0  0  0  0  0  0  0
   -0.7325   -1.0281   -0.2237 C   0  0  0  0  0  0  0  0  0  0  0  0
    1.7645    0.1787   -0.9715 H   0  0  0  0  0  0  0  0  0  0  0  0
    1.9592    0.6680    0.7305 H   0  0  0  0  0  0  0  0  0  0  0  0
    0.0424    2.0671    0.6873 H   0  0  0  0  0  0  0  0  0  0  0  0
   -2.0069    0.6444    0.5468 H   0  0  0  0  0  0  0  0  0  0  0  0
   -1.4378   -1.7006    0.2941 H   0  0  0  0  0  0  0  0  0  0  0  0
   -0.5548   -1.3358   -1.2819 H   0  0  0  0  0  0  0  0  0  0  0  0
  1  2  2  0
  2  3  1  0
  3  4  1  0
  4  5  1  0
  5  6  1  0
  6  7  1  0
  7  2  1  0
  6  4  1  0
  3  8  1  0
  3  9  1  0
  4 10  1  0
  6 11  1  0
  7 12  1  0
  7 13  1  0
M  END
