
     RDKit          3D

 14 15  0  0  0  0  0  0  0  0999 V2000
   -2.0153   -1.6337   -0.1322 O   0  0  0  0  0  0  0  0  0  0  0  0
   -1.2796   -0.6810   -0.3378 C   0  0  0  0  0  0  0  0  0  0  0  0
   -1.1560    0.7383    0.0827 C   0  0  0  0  0  0  0  0  0  0  0  0
    0.0873    0.7002    0.9625 C   0  0  0  0  0  0  0  0  0  0  0  0
    0.9805   -0.0680   -0.0344 C   0  0  0  0  0  0  0  0  0  0  0  0
    1.4477   -1.2443    0.5168 O   0  0  0  0  0  0  0  0  0  0  0  0
   -0.0820   -0.2964   -1.0936 C   0  0  0  0  0  0  0  0  0  0  0  0
   -0.6589    0.9903   -1.2061 O   0  0  0  0  0  0  0  0  0  0  0  0
   -2.0065    1.2665    0.4193 H   0  0  0  0  0  0  0  0  0  0  0  0
    0.4847    1.6838    1.1915 H   0  0  0  0  0  0  0  0  0  0  0  0
   -0.1556    0.0698    1.8243 H   0  0  0  0  0  0  0  0  0  0  0  0
    1.7473    0.5777   -0.4607 H   0  0  0  0  0  0  0  0  0  0  0  0
    2.4211   -1.3046    0.2591 H   0  0  0  0  0  0  0  0  0  0  0  0
    0.1852   -0.7984   -1.9916 H   0  0  0  0  0  0  0  0  0  0  0  0
  1  2  2  0
  2  3  1  0
  3  4  1  0
  4  5  1  0
  5  6  1  0
  5  7  1  0
  7  8  1  0
  7  2  1  0
  8  3  1  0
  3  9  1  0
  4 10  1  0
  4 11  1  0
  5 12  1  0
  6 13  1  0
  7 14  1  0
M  END
