
     RDKit          3D

 17 18  0  0  0  0  0  0  0  0999 V2000
    0.5859    2.3977    0.2881 O   0  0  0  0  0  0  0  0  0  0  0  0
   -0.0125    1.4243   -0.1753 C   0  0  0  0  0  0  0  0  0  0  0  0
   -1.4307    1.2172    0.0736 C   0  0  0  0  0  0  0  0  0  0  0  0
   -1.8457   -0.0116    0.3127 C   0  0  0  0  0  0  0  0  0  0  0  0
   -0.8937   -1.1147    0.3246 C   0  0  0  0  0  0  0  0  0  0  0  0
    0.3696   -0.9466   -0.4182 C   0  0  0  0  0  0  0  0  0  0  0  0
    1.5196   -0.7545    0.3928 O   0  0  0  0  0  0  0  0  0  0  0  0
    2.0322    0.0050   -0.6555 C   0  0  0  0  0  0  0  0  0  0  0  0
    0.6433    0.3944   -1.0139 C   0  0  0  0  0  0  0  0  0  0  0  0
   -2.1392    2.0627    0.0684 H   0  0  0  0  0  0  0  0  0  0  0  0
   -2.9328   -0.1773    0.5012 H   0  0  0  0  0  0  0  0  0  0  0  0
   -0.6639   -1.3438    1.4108 H   0  0  0  0  0  0  0  0  0  0  0  0
   -1.4176   -2.0451   -0.0331 H   0  0  0  0  0  0  0  0  0  0  0  0
    0.6020   -1.7484   -1.1793 H   0  0  0  0  0  0  0  0  0  0  0  0
    2.7139    0.8215   -0.3459 H   0  0  0  0  0  0  0  0  0  0  0  0
    2.4502   -0.6767   -1.4208 H   0  0  0  0  0  0  0  0  0  0  0  0
    0.4194    0.4958   -2.0979 H   0  0  0  0  0  0  0  0  0  0  0  0
  1  2  2  0
  2  3  1  0
  3  4  2  0
  4  5  1  0
  5  6  1  0
  6  7  1  0
  7  8  1  0
  8  9  1  0
  9  2  1  0
  9  6  1  0
  3 10  1  0
  4 11  1  0
  5 12  1  0
  5 13  1  0
  6 14  1  0
  8 15  1  0
  8 16  1  0
  9 17  1  0
M  END
