
     RDKit          3D

 17 19  0  0  0  0  0  0  0  0999 V2000
    1.4259    2.4552   -0.1431 O   0  0  0  0  0  0  0  0  0  0  0  0
    0.9860    1.3592   -0.0875 C   0  0  0  0  0  0  0  0  0  0  0  0
    0.4374    0.3782   -1.0512 C   0  0  0  0  0  0  0  0  0  0  0  0
    1.4836   -0.6981   -0.9210 C   0  0  0  0  0  0  0  0  0  0  0  0
    1.6648   -0.7506    0.4103 C   0  0  0  0  0  0  0  0  0  0  0  0
    0.7026    0.2969    0.9009 C   0  0  0  0  0  0  0  0  0  0  0  0
   -0.4802    0.0202    0.0476 C   0  0  0  0  0  0  0  0  0  0  0  0
   -1.4816   -0.9564    0.1498 C   0  0  0  0  0  0  0  0  0  0  0  0
   -1.7954    0.5314    0.3275 C   0  0  0  0  0  0  0  0  0  0  0  0
    0.1212    0.6726   -2.0075 H   0  0  0  0  0  0  0  0  0  0  0  0
    1.9596   -1.2732   -1.6975 H   0  0  0  0  0  0  0  0  0  0  0  0
    2.3280   -1.3802    0.9824 H   0  0  0  0  0  0  0  0  0  0  0  0
    0.6387    0.5026    1.9269 H   0  0  0  0  0  0  0  0  0  0  0  0
   -1.6606   -1.6439    1.0013 H   0  0  0  0  0  0  0  0  0  0  0  0
   -1.9573   -1.3609   -0.7916 H   0  0  0  0  0  0  0  0  0  0  0  0
   -2.0304    0.7791    1.4020 H   0  0  0  0  0  0  0  0  0  0  0  0
   -2.3424    1.0681   -0.4492 H   0  0  0  0  0  0  0  0  0  0  0  0
  1  2  2  0
  2  3  1  0
  3  4  1  0
  4  5  2  0
  5  6  1  0
  6  7  1  0
  7  8  1  0
  8  9  1  0
  6  2  1  0
  9  7  1  0
  7  3  1  0
  3 10  1  0
  4 11  1  0
  5 12  1  0
  6 13  1  0
  8 14  1  0
  8 15  1  0
  9 16  1  0
  9 17  1  0
M  END
