
     RDKit          3D

 15 15  0  0  0  0  0  0  0  0999 V2000
    0.3692   -2.3361    0.9540 O   0  0  0  0  0  0  0  0  0  0  0  0
    0.1752   -1.2603    0.4298 C   0  0  0  0  0  0  0  0  0  0  0  0
    1.2495   -0.6819   -0.4142 C   0  0  0  0  0  0  0  0  0  0  0  0
    1.2635    0.7837   -0.1546 C   0  0  0  0  0  0  0  0  0  0  0  0
    0.1030    1.4243   -0.1115 C   0  0  0  0  0  0  0  0  0  0  0  0
   -1.1583    0.6533   -0.3238 C   0  0  0  0  0  0  0  0  0  0  0  0
   -1.1070   -0.5439    0.6305 C   0  0  0  0  0  0  0  0  0  0  0  0
    2.2291   -1.1299   -0.1539 H   0  0  0  0  0  0  0  0  0  0  0  0
    0.9674   -0.8659   -1.4733 H   0  0  0  0  0  0  0  0  0  0  0  0
    2.1972    1.3099   -0.0054 H   0  0  0  0  0  0  0  0  0  0  0  0
    0.0319    2.4973    0.0736 H   0  0  0  0  0  0  0  0  0  0  0  0
   -2.0495    1.2554   -0.1704 H   0  0  0  0  0  0  0  0  0  0  0  0
   -1.0990    0.2245   -1.3627 H   0  0  0  0  0  0  0  0  0  0  0  0
   -1.1907   -0.1060    1.6646 H   0  0  0  0  0  0  0  0  0  0  0  0
   -1.9815   -1.2242    0.4174 H   0  0  0  0  0  0  0  0  0  0  0  0
  1  2  2  0
  2  3  1  0
  3  4  1  0
  4  5  2  0
  5  6  1  0
  6  7  1  0
  7  2  1  0
  3  8  1  0
  3  9  1  0
  4 10  1  0
  5 11  1  0
  6 12  1  0
  6 13  1  0
  7 14  1  0
  7 15  1  0
M  END
