
     RDKit          3D

 14 15  0  0  0  0  0  0  0  0999 V2000
   -0.4588    1.8140   -1.7982 O   0  0  0  0  0  0  0  0  0  0  0  0
   -0.7475    1.0569   -0.8431 C   0  0  0  0  0  0  0  0  0  0  0  0
   -1.8847    0.8320   -0.0852 O   0  0  0  0  0  0  0  0  0  0  0  0
   -1.3741   -0.4585    0.2952 C   0  0  0  0  0  0  0  0  0  0  0  0
   -0.0630    0.0589   -0.0647 C   0  0  0  0  0  0  0  0  0  0  0  0
    0.9063    0.4658    0.9767 C   0  0  0  0  0  0  0  0  0  0  0  0
    1.9300   -0.0055    0.1221 O   0  0  0  0  0  0  0  0  0  0  0  0
    0.9944   -0.7647   -0.6216 C   0  0  0  0  0  0  0  0  0  0  0  0
   -1.7952   -1.1983   -0.4231 H   0  0  0  0  0  0  0  0  0  0  0  0
   -1.6042   -0.7401    1.3297 H   0  0  0  0  0  0  0  0  0  0  0  0
    0.9161    1.5646    1.1142 H   0  0  0  0  0  0  0  0  0  0  0  0
    0.9213   -0.1016    1.9150 H   0  0  0  0  0  0  0  0  0  0  0  0
    1.0263   -1.8044   -0.2175 H   0  0  0  0  0  0  0  0  0  0  0  0
    1.2330   -0.7191   -1.6997 H   0  0  0  0  0  0  0  0  0  0  0  0
  1  2  2  0
  2  3  1  0
  3  4  1  0
  4  5  1  0
  5  6  1  0
  6  7  1  0
  7  8  1  0
  5  2  1  0
  8  5  1  0
  4  9  1  0
  4 10  1  0
  6 11  1  0
  6 12  1  0
  8 13  1  0
  8 14  1  0
M  END
