
     RDKit          3D

 17 19  0  0  0  0  0  0  0  0999 V2000
   -1.9833    1.5050   -1.2987 O   0  0  0  0  0  0  0  0  0  0  0  0
   -1.2657    0.6770   -0.7258 C   0  0  0  0  0  0  0  0  0  0  0  0
   -1.6297   -0.4349    0.1578 C   0  0  0  0  0  0  0  0  0  0  0  0
   -0.4441   -0.5995    1.0760 C   0  0  0  0  0  0  0  0  0  0  0  0
    0.7409   -0.0194    0.4050 C   0  0  0  0  0  0  0  0  0  0  0  0
    1.5266   -0.8819   -0.5922 C   0  0  0  0  0  0  0  0  0  0  0  0
    0.7423   -0.3390   -1.5811 O   0  0  0  0  0  0  0  0  0  0  0  0
    0.2082    0.6948   -0.8662 C   0  0  0  0  0  0  0  0  0  0  0  0
    0.9409    1.4240    0.1875 C   0  0  0  0  0  0  0  0  0  0  0  0
   -1.8256   -1.3322   -0.4600 H   0  0  0  0  0  0  0  0  0  0  0  0
   -2.5309   -0.1226    0.7390 H   0  0  0  0  0  0  0  0  0  0  0  0
   -0.2761   -1.7132    1.1611 H   0  0  0  0  0  0  0  0  0  0  0  0
   -0.6259   -0.2512    2.1009 H   0  0  0  0  0  0  0  0  0  0  0  0
    2.5823   -0.5105   -0.7135 H   0  0  0  0  0  0  0  0  0  0  0  0
    1.4637   -1.9495   -0.4035 H   0  0  0  0  0  0  0  0  0  0  0  0
    0.3824    2.1083    0.8199 H   0  0  0  0  0  0  0  0  0  0  0  0
    1.9940    1.7448   -0.0062 H   0  0  0  0  0  0  0  0  0  0  0  0
  1  2  2  0
  2  3  1  0
  3  4  1  0
  4  5  1  0
  5  6  1  0
  6  7  1  0
  7  8  1  0
  8  9  1  0
  8  2  1  0
  8  5  1  0
  9  5  1  0
  3 10  1  0
  3 11  1  0
  4 12  1  0
  4 13  1  0
  6 14  1  0
  6 15  1  0
  9 16  1  0
  9 17  1  0
M  END
