
     RDKit          3D

 14 15  0  0  0  0  0  0  0  0999 V2000
    1.7158    1.1466   -1.6573 O   0  0  0  0  0  0  0  0  0  0  0  0
    1.2651    0.5947   -0.6891 C   0  0  0  0  0  0  0  0  0  0  0  0
    1.8096   -0.1940    0.4372 C   0  0  0  0  0  0  0  0  0  0  0  0
    0.6980    0.2473    1.1967 O   0  0  0  0  0  0  0  0  0  0  0  0
    0.0354    0.3289   -0.0039 C   0  0  0  0  0  0  0  0  0  0  0  0
   -1.2743    0.8410   -0.2473 C   0  0  0  0  0  0  0  0  0  0  0  0
   -0.9694   -0.6734   -0.3401 C   0  0  0  0  0  0  0  0  0  0  0  0
   -1.4388   -1.4500    0.7409 O   0  0  0  0  0  0  0  0  0  0  0  0
    2.7697    0.1213    0.8450 H   0  0  0  0  0  0  0  0  0  0  0  0
    1.7458   -1.3082    0.2696 H   0  0  0  0  0  0  0  0  0  0  0  0
   -1.4844    1.2996   -1.2549 H   0  0  0  0  0  0  0  0  0  0  0  0
   -1.9955    1.1167    0.5448 H   0  0  0  0  0  0  0  0  0  0  0  0
   -1.0764   -1.1632   -1.3066 H   0  0  0  0  0  0  0  0  0  0  0  0
   -1.8006   -0.9072    1.4652 H   0  0  0  0  0  0  0  0  0  0  0  0
  1  2  2  0
  2  3  1  0
  3  4  1  0
  4  5  1  0
  5  6  1  0
  6  7  1  0
  7  8  1  0
  5  2  1  0
  7  5  1  0
  3  9  1  0
  3 10  1  0
  6 11  1  0
  6 12  1  0
  7 13  1  0
  8 14  1  0
M  END
