
     RDKit          3D

 17 18  0  0  0  0  0  0  0  0999 V2000
    3.2800   -0.2830    0.2052 O   0  0  0  0  0  0  0  0  0  0  0  0
    2.0528   -0.1511   -0.0213 C   0  0  0  0  0  0  0  0  0  0  0  0
    1.1262   -1.2199   -0.4210 C   0  0  0  0  0  0  0  0  0  0  0  0
   -0.1066   -0.8801   -0.1156 C   0  0  0  0  0  0  0  0  0  0  0  0
   -1.5450   -1.2031   -0.1021 C   0  0  0  0  0  0  0  0  0  0  0  0
   -2.2254   -0.0150    0.1454 O   0  0  0  0  0  0  0  0  0  0  0  0
   -1.3339    1.0466   -0.0040 C   0  0  0  0  0  0  0  0  0  0  0  0
   -0.0720    0.4868    0.5352 C   0  0  0  0  0  0  0  0  0  0  0  0
    1.2053    1.1017    0.0496 C   0  0  0  0  0  0  0  0  0  0  0  0
    1.4683   -2.1507   -0.9032 H   0  0  0  0  0  0  0  0  0  0  0  0
   -1.8769   -1.6795   -1.0504 H   0  0  0  0  0  0  0  0  0  0  0  0
   -1.6932   -1.9504    0.7257 H   0  0  0  0  0  0  0  0  0  0  0  0
   -1.2893    1.2687   -1.0875 H   0  0  0  0  0  0  0  0  0  0  0  0
   -1.7464    1.8961    0.5722 H   0  0  0  0  0  0  0  0  0  0  0  0
   -0.0894    0.4284    1.6174 H   0  0  0  0  0  0  0  0  0  0  0  0
    1.1410    1.5601   -0.9404 H   0  0  0  0  0  0  0  0  0  0  0  0
    1.7045    1.7443    0.7949 H   0  0  0  0  0  0  0  0  0  0  0  0
  1  2  2  0
  2  3  1  0
  3  4  2  0
  4  5  1  0
  5  6  1  0
  6  7  1  0
  7  8  1  0
  8  9  1  0
  9  2  1  0
  8  4  1  0
  3 10  1  0
  5 11  1  0
  5 12  1  0
  7 13  1  0
  7 14  1  0
  8 15  1  0
  9 16  1  0
  9 17  1  0
M  END
