
     RDKit          3D

 15 16  0  0  0  0  0  0  0  0999 V2000
   -0.2652   -1.8067    1.6488 O   0  0  0  0  0  0  0  0  0  0  0  0
    0.1899   -1.0971    0.7726 C   0  0  0  0  0  0  0  0  0  0  0  0
    1.3865   -1.1238   -0.1235 C   0  0  0  0  0  0  0  0  0  0  0  0
    1.1672    0.3795   -0.3460 C   0  0  0  0  0  0  0  0  0  0  0  0
   -0.2048    0.1487    0.1480 C   0  0  0  0  0  0  0  0  0  0  0  0
   -1.1492    1.1122    0.6335 C   0  0  0  0  0  0  0  0  0  0  0  0
   -1.4099    0.3545   -0.6502 C   0  0  0  0  0  0  0  0  0  0  0  0
    2.3380   -1.3758    0.3612 H   0  0  0  0  0  0  0  0  0  0  0  0
    1.1679   -1.6737   -1.0708 H   0  0  0  0  0  0  0  0  0  0  0  0
    1.8351    1.0215    0.2426 H   0  0  0  0  0  0  0  0  0  0  0  0
    1.2412    0.6464   -1.4177 H   0  0  0  0  0  0  0  0  0  0  0  0
   -1.8035    0.8090    1.4997 H   0  0  0  0  0  0  0  0  0  0  0  0
   -1.0361    2.2043    0.5744 H   0  0  0  0  0  0  0  0  0  0  0  0
   -1.3012    0.8748   -1.6243 H   0  0  0  0  0  0  0  0  0  0  0  0
   -2.1559   -0.4738   -0.6483 H   0  0  0  0  0  0  0  0  0  0  0  0
  1  2  2  0
  2  3  1  0
  3  4  1  0
  4  5  1  0
  5  6  1  0
  6  7  1  0
  5  2  1  0
  7  5  1  0
  3  8  1  0
  3  9  1  0
  4 10  1  0
  4 11  1  0
  6 12  1  0
  6 13  1  0
  7 14  1  0
  7 15  1  0
M  END
