
     RDKit          3D

 15 16  0  0  0  0  0  0  0  0999 V2000
    2.8939   -0.1868    0.5810 O   0  0  0  0  0  0  0  0  0  0  0  0
    1.7494    0.1971    0.2337 C   0  0  0  0  0  0  0  0  0  0  0  0
    1.0543    1.3555    0.5604 O   0  0  0  0  0  0  0  0  0  0  0  0
   -0.0754    1.4126   -0.2853 C   0  0  0  0  0  0  0  0  0  0  0  0
   -1.3011    0.8685    0.3555 C   0  0  0  0  0  0  0  0  0  0  0  0
   -1.4642   -0.4485    0.3088 C   0  0  0  0  0  0  0  0  0  0  0  0
   -0.2313   -1.2739    0.1572 C   0  0  0  0  0  0  0  0  0  0  0  0
    0.8038   -0.5503   -0.6716 C   0  0  0  0  0  0  0  0  0  0  0  0
    0.2290    0.5330   -1.3472 O   0  0  0  0  0  0  0  0  0  0  0  0
   -0.2511    2.4478   -0.6643 H   0  0  0  0  0  0  0  0  0  0  0  0
   -2.0585    1.4573    0.8488 H   0  0  0  0  0  0  0  0  0  0  0  0
   -2.4572   -0.9086    0.3783 H   0  0  0  0  0  0  0  0  0  0  0  0
    0.2245   -1.4126    1.1779 H   0  0  0  0  0  0  0  0  0  0  0  0
   -0.4685   -2.2716   -0.2839 H   0  0  0  0  0  0  0  0  0  0  0  0
    1.3523   -1.2196   -1.3492 H   0  0  0  0  0  0  0  0  0  0  0  0
  1  2  2  0
  2  3  1  0
  3  4  1  0
  4  5  1  0
  5  6  2  0
  6  7  1  0
  7  8  1  0
  8  9  1  0
  8  2  1  0
  9  4  1  0
  4 10  1  0
  5 11  1  0
  6 12  1  0
  7 13  1  0
  7 14  1  0
  8 15  1  0
M  END
