
     RDKit          3D

 16 16  0  0  0  0  0  0  0  0999 V2000
   -0.8039   -0.3739   -2.1964 O   0  0  0  0  0  0  0  0  0  0  0  0
   -0.8393   -0.0902   -1.0431 C   0  0  0  0  0  0  0  0  0  0  0  0
   -2.0279   -0.0388   -0.1826 C   0  0  0  0  0  0  0  0  0  0  0  0
   -1.5164   -0.6314    0.9938 O   0  0  0  0  0  0  0  0  0  0  0  0
   -0.3103    0.0795    1.1974 C   0  0  0  0  0  0  0  0  0  0  0  0
    0.2806    0.2820   -0.1724 C   0  0  0  0  0  0  0  0  0  0  0  0
    1.5291   -0.5241   -0.4029 C   0  0  0  0  0  0  0  0  0  0  0  0
    2.4908   -0.0332    0.5135 O   0  0  0  0  0  0  0  0  0  0  0  0
   -2.2170    1.0182    0.0818 H   0  0  0  0  0  0  0  0  0  0  0  0
   -2.8975   -0.5669   -0.5653 H   0  0  0  0  0  0  0  0  0  0  0  0
    0.3737   -0.5361    1.8010 H   0  0  0  0  0  0  0  0  0  0  0  0
   -0.5930    1.0345    1.6379 H   0  0  0  0  0  0  0  0  0  0  0  0
    0.5540    1.3518   -0.3210 H   0  0  0  0  0  0  0  0  0  0  0  0
    1.9438   -0.3149   -1.4079 H   0  0  0  0  0  0  0  0  0  0  0  0
    1.4230   -1.5860   -0.1832 H   0  0  0  0  0  0  0  0  0  0  0  0
    2.6102    0.9295    0.2495 H   0  0  0  0  0  0  0  0  0  0  0  0
  1  2  2  0
  2  3  1  0
  3  4  1  0
  4  5  1  0
  5  6  1  0
  6  7  1  0
  7  8  1  0
  6  2  1  0
  3  9  1  0
  3 10  1  0
  5 11  1  0
  5 12  1  0
  6 13  1  0
  7 14  1  0
  7 15  1  0
  8 16  1  0
M  END
