
     RDKit          3D

 15 16  0  0  0  0  0  0  0  0999 V2000
   -1.9148   -2.0444   -0.6604 O   0  0  0  0  0  0  0  0  0  0  0  0
   -1.5097   -0.8646   -0.7069 C   0  0  0  0  0  0  0  0  0  0  0  0
   -2.0259    0.3235   -1.1892 O   0  0  0  0  0  0  0  0  0  0  0  0
   -1.2468    0.9895   -0.1852 C   0  0  0  0  0  0  0  0  0  0  0  0
   -0.3121   -0.1633   -0.2838 C   0  0  0  0  0  0  0  0  0  0  0  0
    0.3674   -0.6157    0.9658 C   0  0  0  0  0  0  0  0  0  0  0  0
    1.6161   -0.0166    0.8709 O   0  0  0  0  0  0  0  0  0  0  0  0
    1.8383    0.2991   -0.4502 C   0  0  0  0  0  0  0  0  0  0  0  0
    0.7136   -0.0109   -1.1759 O   0  0  0  0  0  0  0  0  0  0  0  0
   -1.7995    1.1302    0.7408 H   0  0  0  0  0  0  0  0  0  0  0  0
   -0.8910    1.9562   -0.6213 H   0  0  0  0  0  0  0  0  0  0  0  0
    0.5440   -1.7186    0.8659 H   0  0  0  0  0  0  0  0  0  0  0  0
   -0.1738   -0.3609    1.8944 H   0  0  0  0  0  0  0  0  0  0  0  0
    2.7050   -0.3018   -0.8298 H   0  0  0  0  0  0  0  0  0  0  0  0
    2.0893    1.3982   -0.4835 H   0  0  0  0  0  0  0  0  0  0  0  0
  1  2  2  0
  2  3  1  0
  3  4  1  0
  4  5  1  0
  5  6  1  0
  6  7  1  0
  7  8  1  0
  8  9  1  0
  5  2  1  0
  9  5  1  0
  4 10  1  0
  4 11  1  0
  6 12  1  0
  6 13  1  0
  8 14  1  0
  8 15  1  0
M  END
