
     RDKit          3D

 12 12  0  0  0  0  0  0  0  0999 V2000
   -1.9696   -1.1178    1.2799 O   0  0  0  0  0  0  0  0  0  0  0  0
   -1.0220   -0.6979    0.5430 C   0  0  0  0  0  0  0  0  0  0  0  0
   -1.2872    0.3740   -0.4720 C   0  0  0  0  0  0  0  0  0  0  0  0
   -0.2514    1.3499   -0.2935 O   0  0  0  0  0  0  0  0  0  0  0  0
    1.0022    0.9332    0.1354 C   0  0  0  0  0  0  0  0  0  0  0  0
    1.8750    1.6972    0.6190 O   0  0  0  0  0  0  0  0  0  0  0  0
    1.3137   -0.5075    0.0071 C   0  0  0  0  0  0  0  0  0  0  0  0
    0.2442   -1.2073    0.6574 O   0  0  0  0  0  0  0  0  0  0  0  0
   -2.2698    0.8274   -0.3224 H   0  0  0  0  0  0  0  0  0  0  0  0
   -1.1392   -0.1001   -1.4529 H   0  0  0  0  0  0  0  0  0  0  0  0
    2.2940   -0.7946    0.3773 H   0  0  0  0  0  0  0  0  0  0  0  0
    1.2103   -0.7565   -1.0783 H   0  0  0  0  0  0  0  0  0  0  0  0
  1  2  2  0
  2  3  1  0
  3  4  1  0
  4  5  1  0
  5  6  2  0
  5  7  1  0
  7  8  1  0
  8  2  1  0
  3  9  1  0
  3 10  1  0
  7 11  1  0
  7 12  1  0
M  END
