
     RDKit          3D

 17 18  0  0  0  0  0  0  0  0999 V2000
    0.8520   -2.4240    1.0307 O   0  0  0  0  0  0  0  0  0  0  0  0
    0.4474   -1.3809    0.5312 C   0  0  0  0  0  0  0  0  0  0  0  0
    1.3411   -0.2435    0.2100 C   0  0  0  0  0  0  0  0  0  0  0  0
    1.5309    0.5710    1.3226 O   0  0  0  0  0  0  0  0  0  0  0  0
    0.6278    0.4387   -0.9139 C   0  0  0  0  0  0  0  0  0  0  0  0
   -0.8111   -0.0233   -0.8851 C   0  0  0  0  0  0  0  0  0  0  0  0
   -1.5615    0.2372    0.3822 C   0  0  0  0  0  0  0  0  0  0  0  0
   -1.0208    1.2161    1.2001 O   0  0  0  0  0  0  0  0  0  0  0  0
   -0.9350   -1.0625    0.1681 C   0  0  0  0  0  0  0  0  0  0  0  0
    2.3352   -0.5657   -0.1478 H   0  0  0  0  0  0  0  0  0  0  0  0
    2.3739    1.0853    1.2122 H   0  0  0  0  0  0  0  0  0  0  0  0
    0.6145    1.5379   -0.7356 H   0  0  0  0  0  0  0  0  0  0  0  0
    1.0931    0.2640   -1.8986 H   0  0  0  0  0  0  0  0  0  0  0  0
   -1.3740   -0.0812   -1.8324 H   0  0  0  0  0  0  0  0  0  0  0  0
   -2.6806    0.2572    0.3719 H   0  0  0  0  0  0  0  0  0  0  0  0
   -1.2451    2.1002    0.7740 H   0  0  0  0  0  0  0  0  0  0  0  0
   -1.5877   -1.9265   -0.0973 H   0  0  0  0  0  0  0  0  0  0  0  0
  1  2  2  0
  2  3  1  0
  3  4  1  0
  3  5  1  0
  5  6  1  0
  6  7  1  0
  7  8  1  0
  7  9  1  0
  9  2  1  0
  9  6  1  0
  3 10  1  0
  4 11  1  0
  5 12  1  0
  5 13  1  0
  6 14  1  0
  7 15  1  0
  8 16  1  0
  9 17  1  0
M  END
