
     RDKit          3D

 13 13  0  0  0  0  0  0  0  0999 V2000
   -0.4975   -0.8214    2.2750 O   0  0  0  0  0  0  0  0  0  0  0  0
   -0.2484   -0.3907    1.1343 C   0  0  0  0  0  0  0  0  0  0  0  0
   -1.2443    0.1114    0.2925 C   0  0  0  0  0  0  0  0  0  0  0  0
   -0.9698    0.5879   -0.9689 C   0  0  0  0  0  0  0  0  0  0  0  0
   -1.9315    1.0924   -1.8294 O   0  0  0  0  0  0  0  0  0  0  0  0
    0.2831    0.5524   -1.3582 O   0  0  0  0  0  0  0  0  0  0  0  0
    1.2547    0.0895   -0.6024 C   0  0  0  0  0  0  0  0  0  0  0  0
    1.0485   -0.4016    0.6688 C   0  0  0  0  0  0  0  0  0  0  0  0
    2.0981   -0.8827    1.4389 O   0  0  0  0  0  0  0  0  0  0  0  0
   -2.2589    0.1318    0.6280 H   0  0  0  0  0  0  0  0  0  0  0  0
   -2.8710    0.7734   -1.8815 H   0  0  0  0  0  0  0  0  0  0  0  0
    2.2924    0.0764   -0.9643 H   0  0  0  0  0  0  0  0  0  0  0  0
    3.0447   -0.9187    1.1672 H   0  0  0  0  0  0  0  0  0  0  0  0
  1  2  2  0
  2  3  1  0
  3  4  2  0
  4  5  1  0
  4  6  1  0
  6  7  1  0
  7  8  2  0
  8  9  1  0
  8  2  1  0
  3 10  1  0
  5 11  1  0
  7 12  1  0
  9 13  1  0
M  END
