
     RDKit          3D

 16 16  0  0  0  0  0  0  0  0999 V2000
   -0.6484    1.8774    1.3200 O   0  0  0  0  0  0  0  0  0  0  0  0
   -0.6337    0.8016    0.7687 C   0  0  0  0  0  0  0  0  0  0  0  0
   -1.6255   -0.0698    0.0932 C   0  0  0  0  0  0  0  0  0  0  0  0
   -2.5970    0.5749   -0.6425 O   0  0  0  0  0  0  0  0  0  0  0  0
   -0.4629   -0.6194   -0.7380 C   0  0  0  0  0  0  0  0  0  0  0  0
    0.3922   -0.2259    0.4728 C   0  0  0  0  0  0  0  0  0  0  0  0
    1.7469    0.2858    0.1161 C   0  0  0  0  0  0  0  0  0  0  0  0
    2.5689   -0.8239   -0.1262 O   0  0  0  0  0  0  0  0  0  0  0  0
   -2.0110   -0.9094    0.7237 H   0  0  0  0  0  0  0  0  0  0  0  0
   -3.4249    0.5888   -0.0779 H   0  0  0  0  0  0  0  0  0  0  0  0
   -0.5032   -1.6845   -0.9456 H   0  0  0  0  0  0  0  0  0  0  0  0
   -0.2891    0.0622   -1.5818 H   0  0  0  0  0  0  0  0  0  0  0  0
    0.3850   -1.0051    1.2606 H   0  0  0  0  0  0  0  0  0  0  0  0
    1.6767    0.8999   -0.8081 H   0  0  0  0  0  0  0  0  0  0  0  0
    2.1544    0.8736    0.9688 H   0  0  0  0  0  0  0  0  0  0  0  0
    3.2716   -0.6263   -0.8037 H   0  0  0  0  0  0  0  0  0  0  0  0
  1  2  2  0
  2  3  1  0
  3  4  1  0
  3  5  1  0
  5  6  1  0
  6  7  1  0
  7  8  1  0
  6  2  1  0
  3  9  1  0
  4 10  1  0
  5 11  1  0
  5 12  1  0
  6 13  1  0
  7 14  1  0
  7 15  1  0
  8 16  1  0
M  END
