
     RDKit          3D

 11 12  0  0  0  0  0  0  0  0999 V2000
    2.9426    0.5679   -0.0564 O   0  0  0  0  0  0  0  0  0  0  0  0
    1.7396    0.2014   -0.0994 C   0  0  0  0  0  0  0  0  0  0  0  0
    0.8762    0.1257   -1.1875 O   0  0  0  0  0  0  0  0  0  0  0  0
   -0.3768   -0.3621   -0.7832 C   0  0  0  0  0  0  0  0  0  0  0  0
   -1.1628    0.5604    0.1979 C   0  0  0  0  0  0  0  0  0  0  0  0
   -0.2795   -0.5096    0.6857 C   0  0  0  0  0  0  0  0  0  0  0  0
    1.0598   -0.2148    1.0556 O   0  0  0  0  0  0  0  0  0  0  0  0
   -0.9731   -1.0150   -1.4204 H   0  0  0  0  0  0  0  0  0  0  0  0
   -0.8493    1.6174    0.1325 H   0  0  0  0  0  0  0  0  0  0  0  0
   -2.2455    0.3614    0.2315 H   0  0  0  0  0  0  0  0  0  0  0  0
   -0.7312   -1.3326    1.2437 H   0  0  0  0  0  0  0  0  0  0  0  0
  1  2  2  0
  2  3  1  0
  3  4  1  0
  4  5  1  0
  5  6  1  0
  6  7  1  0
  7  2  1  0
  6  4  1  0
  4  8  1  0
  5  9  1  0
  5 10  1  0
  6 11  1  0
M  END
