
     RDKit          3D

 19 20  0  0  0  0  0  0  0  0999 V2000
   -0.2988    2.0323   -1.6605 O   0  0  0  0  0  0  0  0  0  0  0  0
    0.1172    1.1260   -0.9689 C   0  0  0  0  0  0  0  0  0  0  0  0
    1.2266    1.2359   -0.0189 C   0  0  0  0  0  0  0  0  0  0  0  0
    1.2078   -0.0190    0.8074 C   0  0  0  0  0  0  0  0  0  0  0  0
    2.3680   -0.7514    0.4597 O   0  0  0  0  0  0  0  0  0  0  0  0
    0.0403   -0.8442    0.3663 C   0  0  0  0  0  0  0  0  0  0  0  0
   -1.2861   -0.5300    0.9416 C   0  0  0  0  0  0  0  0  0  0  0  0
   -1.8453   -0.2919   -0.4531 C   0  0  0  0  0  0  0  0  0  0  0  0
   -0.3972   -0.2477   -0.9411 C   0  0  0  0  0  0  0  0  0  0  0  0
    2.1815    1.3537   -0.6021 H   0  0  0  0  0  0  0  0  0  0  0  0
    1.1781    2.1460    0.6298 H   0  0  0  0  0  0  0  0  0  0  0  0
    1.2229    0.2163    1.8796 H   0  0  0  0  0  0  0  0  0  0  0  0
    2.1863   -1.0459   -0.4885 H   0  0  0  0  0  0  0  0  0  0  0  0
    0.2450   -1.9207    0.3671 H   0  0  0  0  0  0  0  0  0  0  0  0
   -1.3840    0.3536    1.5887 H   0  0  0  0  0  0  0  0  0  0  0  0
   -1.8263   -1.4074    1.3965 H   0  0  0  0  0  0  0  0  0  0  0  0
   -2.3427   -1.1726   -0.9047 H   0  0  0  0  0  0  0  0  0  0  0  0
   -2.3905    0.6493   -0.5784 H   0  0  0  0  0  0  0  0  0  0  0  0
   -0.2026   -0.8822   -1.8203 H   0  0  0  0  0  0  0  0  0  0  0  0
  1  2  2  0
  2  3  1  0
  3  4  1  0
  4  5  1  0
  4  6  1  0
  6  7  1  0
  7  8  1  0
  8  9  1  0
  9  2  1  0
  9  6  1  0
  3 10  1  0
  3 11  1  0
  4 12  1  0
  5 13  1  0
  6 14  1  0
  7 15  1  0
  7 16  1  0
  8 17  1  0
  8 18  1  0
  9 19  1  0
M  END
