
     RDKit          3D

 19 20  0  0  0  0  0  0  0  0999 V2000
    1.7595    2.5216   -0.2372 O   0  0  0  0  0  0  0  0  0  0  0  0
    1.2341    1.3744   -0.3926 C   0  0  0  0  0  0  0  0  0  0  0  0
    2.0175    0.2126    0.0084 C   0  0  0  0  0  0  0  0  0  0  0  0
    1.3283   -1.0711    0.1792 C   0  0  0  0  0  0  0  0  0  0  0  0
   -0.1142   -1.1367   -0.1427 C   0  0  0  0  0  0  0  0  0  0  0  0
   -0.8078    0.1897   -0.2444 C   0  0  0  0  0  0  0  0  0  0  0  0
   -2.2802    0.1460   -0.4863 C   0  0  0  0  0  0  0  0  0  0  0  0
   -1.7072    0.6917    0.8111 C   0  0  0  0  0  0  0  0  0  0  0  0
   -0.0260    1.1585   -0.9152 O   0  0  0  0  0  0  0  0  0  0  0  0
    2.5341    0.4947    0.9754 H   0  0  0  0  0  0  0  0  0  0  0  0
    2.8837    0.1474   -0.7183 H   0  0  0  0  0  0  0  0  0  0  0  0
    1.8523   -1.8390   -0.4662 H   0  0  0  0  0  0  0  0  0  0  0  0
    1.4665   -1.4684    1.2210 H   0  0  0  0  0  0  0  0  0  0  0  0
   -0.2970   -1.6630   -1.1273 H   0  0  0  0  0  0  0  0  0  0  0  0
   -0.6841   -1.7354    0.6003 H   0  0  0  0  0  0  0  0  0  0  0  0
   -2.6383    0.8731   -1.2567 H   0  0  0  0  0  0  0  0  0  0  0  0
   -2.7909   -0.8183   -0.4950 H   0  0  0  0  0  0  0  0  0  0  0  0
   -1.9075    0.1329    1.7452 H   0  0  0  0  0  0  0  0  0  0  0  0
   -1.8230    1.7893    0.9414 H   0  0  0  0  0  0  0  0  0  0  0  0
  1  2  2  0
  2  3  1  0
  3  4  1  0
  4  5  1  0
  5  6  1  0
  6  7  1  0
  7  8  1  0
  6  9  1  0
  9  2  1  0
  8  6  1  0
  3 10  1  0
  3 11  1  0
  4 12  1  0
  4 13  1  0
  5 14  1  0
  5 15  1  0
  7 16  1  0
  7 17  1  0
  8 18  1  0
  8 19  1  0
M  END
