
     RDKit          3D

 17 18  0  0  0  0  0  0  0  0999 V2000
   -2.6397    1.9762   -0.0347 O   0  0  0  0  0  0  0  0  0  0  0  0
   -1.8366    1.0001   -0.2285 C   0  0  0  0  0  0  0  0  0  0  0  0
   -1.9670   -0.3953    0.2949 C   0  0  0  0  0  0  0  0  0  0  0  0
   -0.5349   -0.8329    0.4988 C   0  0  0  0  0  0  0  0  0  0  0  0
    0.2483    0.1493   -0.3008 C   0  0  0  0  0  0  0  0  0  0  0  0
    1.3930    0.9156    0.3642 C   0  0  0  0  0  0  0  0  0  0  0  0
    1.6108   -0.0894   -0.7716 C   0  0  0  0  0  0  0  0  0  0  0  0
    2.1869   -1.3149   -0.3932 O   0  0  0  0  0  0  0  0  0  0  0  0
   -0.6588    0.9950   -0.9644 O   0  0  0  0  0  0  0  0  0  0  0  0
   -2.4134   -1.0560   -0.4909 H   0  0  0  0  0  0  0  0  0  0  0  0
   -2.5315   -0.4477    1.2261 H   0  0  0  0  0  0  0  0  0  0  0  0
   -0.3476   -1.8622    0.1186 H   0  0  0  0  0  0  0  0  0  0  0  0
   -0.2569   -0.8282    1.5732 H   0  0  0  0  0  0  0  0  0  0  0  0
    1.5528    1.9732    0.0826 H   0  0  0  0  0  0  0  0  0  0  0  0
    1.5713    0.6041    1.3945 H   0  0  0  0  0  0  0  0  0  0  0  0
    1.9000    0.3259   -1.7592 H   0  0  0  0  0  0  0  0  0  0  0  0
    2.7234   -1.1129    0.4170 H   0  0  0  0  0  0  0  0  0  0  0  0
  1  2  2  0
  2  3  1  0
  3  4  1  0
  4  5  1  0
  5  6  1  0
  6  7  1  0
  7  8  1  0
  5  9  1  0
  9  2  1  0
  7  5  1  0
  3 10  1  0
  3 11  1  0
  4 12  1  0
  4 13  1  0
  6 14  1  0
  6 15  1  0
  7 16  1  0
  8 17  1  0
M  END
