
     RDKit          3D

 14 16  0  0  0  0  0  0  0  0999 V2000
    2.0404   -1.7676   -0.8520 O   0  0  0  0  0  0  0  0  0  0  0  0
    1.4030   -0.8126   -0.3414 C   0  0  0  0  0  0  0  0  0  0  0  0
    1.7858    0.5181   -0.2912 O   0  0  0  0  0  0  0  0  0  0  0  0
    0.6708    1.2943    0.1783 C   0  0  0  0  0  0  0  0  0  0  0  0
   -0.6626    0.8984   -0.3437 C   0  0  0  0  0  0  0  0  0  0  0  0
   -1.0041   -0.5274   -0.6514 C   0  0  0  0  0  0  0  0  0  0  0  0
    0.0880   -0.9611    0.3150 C   0  0  0  0  0  0  0  0  0  0  0  0
   -0.0710    0.3561    0.9973 C   0  0  0  0  0  0  0  0  0  0  0  0
    0.8233    2.3395    0.4050 H   0  0  0  0  0  0  0  0  0  0  0  0
   -1.4769    1.6398   -0.2467 H   0  0  0  0  0  0  0  0  0  0  0  0
   -1.9866   -0.8101   -0.2149 H   0  0  0  0  0  0  0  0  0  0  0  0
   -0.8449   -0.8345   -1.6943 H   0  0  0  0  0  0  0  0  0  0  0  0
   -0.0972   -1.8682    0.8790 H   0  0  0  0  0  0  0  0  0  0  0  0
   -0.6680    0.5353    1.8611 H   0  0  0  0  0  0  0  0  0  0  0  0
  1  2  2  0
  2  3  1  0
  3  4  1  0
  4  5  1  0
  5  6  1  0
  6  7  1  0
  7  8  1  0
  7  2  1  0
  8  4  1  0
  8  5  1  0
  4  9  1  0
  5 10  1  0
  6 11  1  0
  6 12  1  0
  7 13  1  0
  8 14  1  0
M  END
