
     RDKit          3D

 15 15  0  0  0  0  0  0  0  0999 V2000
    2.5924   -1.0979   -0.1857 O   0  0  0  0  0  0  0  0  0  0  0  0
    1.4326   -0.6271   -0.0902 C   0  0  0  0  0  0  0  0  0  0  0  0
    1.4232    0.8352   -0.0544 C   0  0  0  0  0  0  0  0  0  0  0  0
    0.3280    1.5852   -0.0588 C   0  0  0  0  0  0  0  0  0  0  0  0
   -1.0713    1.1835   -0.0980 C   0  0  0  0  0  0  0  0  0  0  0  0
   -1.9151    2.0723   -0.2972 O   0  0  0  0  0  0  0  0  0  0  0  0
   -1.5807   -0.1996    0.0799 C   0  0  0  0  0  0  0  0  0  0  0  0
   -0.8331   -1.0986   -0.6863 O   0  0  0  0  0  0  0  0  0  0  0  0
    0.2839   -1.5695   -0.0296 C   0  0  0  0  0  0  0  0  0  0  0  0
    2.3561    1.3381   -0.0225 H   0  0  0  0  0  0  0  0  0  0  0  0
    0.4970    2.6612   -0.0288 H   0  0  0  0  0  0  0  0  0  0  0  0
   -2.6456   -0.2146   -0.1771 H   0  0  0  0  0  0  0  0  0  0  0  0
   -1.5266   -0.4969    1.1672 H   0  0  0  0  0  0  0  0  0  0  0  0
    0.0553   -1.8723    1.0293 H   0  0  0  0  0  0  0  0  0  0  0  0
    0.6037   -2.4991   -0.5479 H   0  0  0  0  0  0  0  0  0  0  0  0
  1  2  2  0
  2  3  1  0
  3  4  2  0
  4  5  1  0
  5  6  2  0
  5  7  1  0
  7  8  1  0
  8  9  1  0
  9  2  1  0
  3 10  1  0
  4 11  1  0
  7 12  1  0
  7 13  1  0
  9 14  1  0
  9 15  1  0
M  END
