
     RDKit          3D

 15 18  0  0  0  0  0  0  0  0999 V2000
   -2.3298   -1.0165   -0.9565 O   0  0  0  0  0  0  0  0  0  0  0  0
   -1.2850   -0.5633   -0.6061 C   0  0  0  0  0  0  0  0  0  0  0  0
   -0.0558   -1.3277   -0.3172 C   0  0  0  0  0  0  0  0  0  0  0  0
    1.2753   -0.6845   -0.3426 C   0  0  0  0  0  0  0  0  0  0  0  0
    1.4615    0.5963   -0.8299 O   0  0  0  0  0  0  0  0  0  0  0  0
    0.3990    1.3701   -0.4071 C   0  0  0  0  0  0  0  0  0  0  0  0
   -0.9895    0.8648   -0.3835 C   0  0  0  0  0  0  0  0  0  0  0  0
   -0.1140    0.7933    0.8435 C   0  0  0  0  0  0  0  0  0  0  0  0
    0.4762   -0.5888    0.8760 C   0  0  0  0  0  0  0  0  0  0  0  0
   -0.0957   -2.4155   -0.2084 H   0  0  0  0  0  0  0  0  0  0  0  0
    2.1425   -1.3410   -0.3454 H   0  0  0  0  0  0  0  0  0  0  0  0
    0.5419    2.4446   -0.4601 H   0  0  0  0  0  0  0  0  0  0  0  0
   -1.7997    1.6085   -0.4112 H   0  0  0  0  0  0  0  0  0  0  0  0
   -0.3490    1.3477    1.7422 H   0  0  0  0  0  0  0  0  0  0  0  0
    0.7221   -1.0881    1.8065 H   0  0  0  0  0  0  0  0  0  0  0  0
  1  2  2  0
  2  3  1  0
  3  4  1  0
  4  5  1  0
  5  6  1  0
  6  7  1  0
  7  8  1  0
  8  9  1  0
  7  2  1  0
  9  3  1  0
  9  4  1  0
  8  6  1  0
  3 10  1  0
  4 11  1  0
  6 12  1  0
  7 13  1  0
  8 14  1  0
  9 15  1  0
M  END
