
     RDKit          3D

 19 20  0  0  0  0  0  0  0  0999 V2000
   -2.8466   -0.9614    1.2053 O   0  0  0  0  0  0  0  0  0  0  0  0
   -1.8086   -0.4726    0.8789 C   0  0  0  0  0  0  0  0  0  0  0  0
   -1.5909    0.7693    0.1231 C   0  0  0  0  0  0  0  0  0  0  0  0
   -0.5037    0.3445   -0.8405 C   0  0  0  0  0  0  0  0  0  0  0  0
    0.7676    1.1218   -0.7752 C   0  0  0  0  0  0  0  0  0  0  0  0
    1.4900   -0.0555   -0.1581 C   0  0  0  0  0  0  0  0  0  0  0  0
    2.4747   -0.6239   -0.9516 O   0  0  0  0  0  0  0  0  0  0  0  0
    0.2125   -0.8222   -0.1941 C   0  0  0  0  0  0  0  0  0  0  0  0
   -0.4693   -1.0075    1.1608 C   0  0  0  0  0  0  0  0  0  0  0  0
   -2.4955    1.1409   -0.3951 H   0  0  0  0  0  0  0  0  0  0  0  0
   -1.1982    1.5480    0.8401 H   0  0  0  0  0  0  0  0  0  0  0  0
   -0.8379    0.1661   -1.8774 H   0  0  0  0  0  0  0  0  0  0  0  0
    0.6769    2.0113   -0.1384 H   0  0  0  0  0  0  0  0  0  0  0  0
    1.2025    1.3218   -1.7875 H   0  0  0  0  0  0  0  0  0  0  0  0
    1.8212    0.1958    0.8552 H   0  0  0  0  0  0  0  0  0  0  0  0
    3.3637   -0.5569   -0.4856 H   0  0  0  0  0  0  0  0  0  0  0  0
    0.1839   -1.7257   -0.8310 H   0  0  0  0  0  0  0  0  0  0  0  0
   -0.4627   -2.0633    1.4827 H   0  0  0  0  0  0  0  0  0  0  0  0
    0.0202   -0.3303    1.8885 H   0  0  0  0  0  0  0  0  0  0  0  0
  1  2  2  0
  2  3  1  0
  3  4  1  0
  4  5  1  0
  5  6  1  0
  6  7  1  0
  6  8  1  0
  8  9  1  0
  9  2  1  0
  8  4  1  0
  3 10  1  0
  3 11  1  0
  4 12  1  0
  5 13  1  0
  5 14  1  0
  6 15  1  0
  7 16  1  0
  8 17  1  0
  9 18  1  0
  9 19  1  0
M  END
