
     RDKit          3D

 16 17  0  0  0  0  0  0  0  0999 V2000
   -0.2522    2.1463    1.2741 O   0  0  0  0  0  0  0  0  0  0  0  0
   -0.5516    1.1225    0.6656 C   0  0  0  0  0  0  0  0  0  0  0  0
   -1.4830    0.7240   -0.4267 C   0  0  0  0  0  0  0  0  0  0  0  0
   -1.5323   -0.6524    0.2071 C   0  0  0  0  0  0  0  0  0  0  0  0
   -0.1172   -0.3241    0.7058 C   0  0  0  0  0  0  0  0  0  0  0  0
    0.9433   -0.5807   -0.3329 C   0  0  0  0  0  0  0  0  0  0  0  0
    2.1575    0.1105   -0.3092 C   0  0  0  0  0  0  0  0  0  0  0  0
    2.0993   -1.2373    0.3144 O   0  0  0  0  0  0  0  0  0  0  0  0
   -2.4588    1.2428   -0.4251 H   0  0  0  0  0  0  0  0  0  0  0  0
   -1.0510    0.7252   -1.4406 H   0  0  0  0  0  0  0  0  0  0  0  0
   -2.2254   -0.7324    1.0511 H   0  0  0  0  0  0  0  0  0  0  0  0
   -1.5546   -1.4665   -0.5422 H   0  0  0  0  0  0  0  0  0  0  0  0
    0.0611   -0.7152    1.7021 H   0  0  0  0  0  0  0  0  0  0  0  0
    0.6643   -1.2238   -1.2111 H   0  0  0  0  0  0  0  0  0  0  0  0
    2.8844    0.0372   -1.1502 H   0  0  0  0  0  0  0  0  0  0  0  0
    2.4161    0.8240    0.4884 H   0  0  0  0  0  0  0  0  0  0  0  0
  1  2  2  0
  2  3  1  0
  3  4  1  0
  4  5  1  0
  5  6  1  0
  6  7  1  0
  7  8  1  0
  5  2  1  0
  8  6  1  0
  3  9  1  0
  3 10  1  0
  4 11  1  0
  4 12  1  0
  5 13  1  0
  6 14  1  0
  7 15  1  0
  7 16  1  0
M  END
