
     RDKit          3D

 14 15  0  0  0  0  0  0  0  0999 V2000
    1.4981   -1.1457    1.8792 O   0  0  0  0  0  0  0  0  0  0  0  0
    0.6064   -0.6041    1.2053 C   0  0  0  0  0  0  0  0  0  0  0  0
   -0.6405   -0.0607    1.6032 O   0  0  0  0  0  0  0  0  0  0  0  0
   -1.1600    0.4413    0.3925 C   0  0  0  0  0  0  0  0  0  0  0  0
   -0.8592   -0.7034   -0.5774 C   0  0  0  0  0  0  0  0  0  0  0  0
    0.5606   -0.3485   -0.2568 C   0  0  0  0  0  0  0  0  0  0  0  0
    1.5607   -0.6739   -1.0420 O   0  0  0  0  0  0  0  0  0  0  0  0
    0.0698    1.1084   -0.2279 C   0  0  0  0  0  0  0  0  0  0  0  0
   -2.0863    0.9256    0.3445 H   0  0  0  0  0  0  0  0  0  0  0  0
   -1.2293   -1.6430   -0.1174 H   0  0  0  0  0  0  0  0  0  0  0  0
   -1.1911   -0.5177   -1.6138 H   0  0  0  0  0  0  0  0  0  0  0  0
    2.3364   -0.0694   -0.8927 H   0  0  0  0  0  0  0  0  0  0  0  0
   -0.0886    1.5564   -1.2097 H   0  0  0  0  0  0  0  0  0  0  0  0
    0.6231    1.7347    0.5130 H   0  0  0  0  0  0  0  0  0  0  0  0
  1  2  2  0
  2  3  1  0
  3  4  1  0
  4  5  1  0
  5  6  1  0
  6  7  1  0
  6  8  1  0
  6  2  1  0
  8  4  1  0
  4  9  1  0
  5 10  1  0
  5 11  1  0
  7 12  1  0
  8 13  1  0
  8 14  1  0
M  END
