
     RDKit          3D

 12 13  0  0  0  0  0  0  0  0999 V2000
   -1.3002    2.1048   -0.4087 O   0  0  0  0  0  0  0  0  0  0  0  0
   -0.7732    1.0486   -0.1552 C   0  0  0  0  0  0  0  0  0  0  0  0
   -1.1518   -0.3594   -0.4477 C   0  0  0  0  0  0  0  0  0  0  0  0
    0.0897   -0.7680    0.3353 C   0  0  0  0  0  0  0  0  0  0  0  0
    1.3881   -0.2476   -0.1543 C   0  0  0  0  0  0  0  0  0  0  0  0
    0.4714    0.6648    0.5511 C   0  0  0  0  0  0  0  0  0  0  0  0
   -2.1025   -0.6405    0.0103 H   0  0  0  0  0  0  0  0  0  0  0  0
   -1.0133   -0.6456   -1.5044 H   0  0  0  0  0  0  0  0  0  0  0  0
    0.0015   -1.4643    1.1682 H   0  0  0  0  0  0  0  0  0  0  0  0
    1.4275   -0.1047   -1.2736 H   0  0  0  0  0  0  0  0  0  0  0  0
    2.2816   -0.6507    0.3292 H   0  0  0  0  0  0  0  0  0  0  0  0
    0.6813    1.0624    1.5497 H   0  0  0  0  0  0  0  0  0  0  0  0
  1  2  2  0
  2  3  1  0
  3  4  1  0
  4  5  1  0
  5  6  1  0
  6  2  1  0
  6  4  1  0
  3  7  1  0
  3  8  1  0
  4  9  1  0
  5 10  1  0
  5 11  1  0
  6 12  1  0
M  END
