
     RDKit          3D

 17 18  0  0  0  0  0  0  0  0999 V2000
    0.9724    2.2301    1.5205 O   0  0  0  0  0  0  0  0  0  0  0  0
    0.4373    1.2013    1.0808 C   0  0  0  0  0  0  0  0  0  0  0  0
   -0.6230    0.5195    1.6558 O   0  0  0  0  0  0  0  0  0  0  0  0
   -0.9063   -0.7024    0.9388 C   0  0  0  0  0  0  0  0  0  0  0  0
   -1.3097   -0.3169   -0.4628 C   0  0  0  0  0  0  0  0  0  0  0  0
   -0.2820    0.5796   -1.1115 C   0  0  0  0  0  0  0  0  0  0  0  0
    0.9415    0.5996   -0.1796 C   0  0  0  0  0  0  0  0  0  0  0  0
    1.2384   -0.8898    0.0536 C   0  0  0  0  0  0  0  0  0  0  0  0
    0.2681   -1.4239    0.8693 O   0  0  0  0  0  0  0  0  0  0  0  0
   -1.6773   -1.2723    1.4460 H   0  0  0  0  0  0  0  0  0  0  0  0
   -1.4282   -1.2692   -1.0348 H   0  0  0  0  0  0  0  0  0  0  0  0
   -2.2983    0.1958   -0.3875 H   0  0  0  0  0  0  0  0  0  0  0  0
   -0.6431    1.6277   -1.1846 H   0  0  0  0  0  0  0  0  0  0  0  0
    0.0822    0.1829   -2.0761 H   0  0  0  0  0  0  0  0  0  0  0  0
    1.7852    1.1271   -0.6157 H   0  0  0  0  0  0  0  0  0  0  0  0
    1.2000   -1.3422   -0.9760 H   0  0  0  0  0  0  0  0  0  0  0  0
    2.2430   -1.0468    0.4639 H   0  0  0  0  0  0  0  0  0  0  0  0
  1  2  2  0
  2  3  1  0
  3  4  1  0
  4  5  1  0
  5  6  1  0
  6  7  1  0
  7  8  1  0
  8  9  1  0
  7  2  1  0
  9  4  1  0
  4 10  1  0
  5 11  1  0
  5 12  1  0
  6 13  1  0
  6 14  1  0
  7 15  1  0
  8 16  1  0
  8 17  1  0
M  END
