
     RDKit          3D

 16 17  0  0  0  0  0  0  0  0999 V2000
   -0.6015   -2.4346    0.5939 O   0  0  0  0  0  0  0  0  0  0  0  0
    0.0446   -1.3729    0.5461 C   0  0  0  0  0  0  0  0  0  0  0  0
    1.2714   -1.1525    1.1309 O   0  0  0  0  0  0  0  0  0  0  0  0
    1.8842    0.0053    0.5709 C   0  0  0  0  0  0  0  0  0  0  0  0
    0.9511    0.4794   -0.5267 C   0  0  0  0  0  0  0  0  0  0  0  0
   -0.3567   -0.1491   -0.1329 C   0  0  0  0  0  0  0  0  0  0  0  0
   -1.5840    0.0088   -0.9098 C   0  0  0  0  0  0  0  0  0  0  0  0
   -1.4629    0.6499    0.4384 C   0  0  0  0  0  0  0  0  0  0  0  0
    2.0028    0.8193    1.2932 H   0  0  0  0  0  0  0  0  0  0  0  0
    2.8593   -0.2876    0.0850 H   0  0  0  0  0  0  0  0  0  0  0  0
    1.2426    0.0267   -1.5069 H   0  0  0  0  0  0  0  0  0  0  0  0
    0.9101    1.5765   -0.6068 H   0  0  0  0  0  0  0  0  0  0  0  0
   -1.5481    0.7401   -1.7536 H   0  0  0  0  0  0  0  0  0  0  0  0
   -2.2309   -0.8738   -1.0560 H   0  0  0  0  0  0  0  0  0  0  0  0
   -1.3936    1.7627    0.5210 H   0  0  0  0  0  0  0  0  0  0  0  0
   -1.9883    0.2018    1.3133 H   0  0  0  0  0  0  0  0  0  0  0  0
  1  2  2  0
  2  3  1  0
  3  4  1  0
  4  5  1  0
  5  6  1  0
  6  7  1  0
  7  8  1  0
  6  2  1  0
  8  6  1  0
  4  9  1  0
  4 10  1  0
  5 11  1  0
  5 12  1  0
  7 13  1  0
  7 14  1  0
  8 15  1  0
  8 16  1  0
M  END
