
     RDKit          3D

 17 18  0  0  0  0  0  0  0  0999 V2000
    0.2557    1.9028   -1.3397 O   0  0  0  0  0  0  0  0  0  0  0  0
   -0.0931    1.1372   -0.4471 C   0  0  0  0  0  0  0  0  0  0  0  0
   -1.5236    1.1469    0.0386 C   0  0  0  0  0  0  0  0  0  0  0  0
   -1.8891   -0.1103    0.4591 O   0  0  0  0  0  0  0  0  0  0  0  0
   -1.2657   -1.1334   -0.2113 C   0  0  0  0  0  0  0  0  0  0  0  0
    0.2270   -1.2015    0.0504 C   0  0  0  0  0  0  0  0  0  0  0  0
    0.8075    0.1742    0.2115 C   0  0  0  0  0  0  0  0  0  0  0  0
    2.2233    0.3115    0.3415 C   0  0  0  0  0  0  0  0  0  0  0  0
    1.3729    0.5631    1.4095 O   0  0  0  0  0  0  0  0  0  0  0  0
   -1.4923    1.7928    0.9647 H   0  0  0  0  0  0  0  0  0  0  0  0
   -2.2010    1.6081   -0.6891 H   0  0  0  0  0  0  0  0  0  0  0  0
   -1.6834   -2.0922    0.1890 H   0  0  0  0  0  0  0  0  0  0  0  0
   -1.4995   -1.1517   -1.3014 H   0  0  0  0  0  0  0  0  0  0  0  0
    0.4857   -1.8477    0.9024 H   0  0  0  0  0  0  0  0  0  0  0  0
    0.6999   -1.6381   -0.8740 H   0  0  0  0  0  0  0  0  0  0  0  0
    2.8405   -0.6136    0.4621 H   0  0  0  0  0  0  0  0  0  0  0  0
    2.7352    1.1519   -0.1662 H   0  0  0  0  0  0  0  0  0  0  0  0
  1  2  2  0
  2  3  1  0
  3  4  1  0
  4  5  1  0
  5  6  1  0
  6  7  1  0
  7  8  1  0
  8  9  1  0
  7  2  1  0
  9  7  1  0
  3 10  1  0
  3 11  1  0
  5 12  1  0
  5 13  1  0
  6 14  1  0
  6 15  1  0
  8 16  1  0
  8 17  1  0
M  END
