
     RDKit          3D

 17 19  0  0  0  0  0  0  0  0999 V2000
    1.0352    2.3830   -0.4288 O   0  0  0  0  0  0  0  0  0  0  0  0
    1.0115    1.1678   -0.3177 C   0  0  0  0  0  0  0  0  0  0  0  0
    1.8323    0.0041   -0.8057 C   0  0  0  0  0  0  0  0  0  0  0  0
    0.9117   -0.9385   -0.0731 C   0  0  0  0  0  0  0  0  0  0  0  0
    0.7640   -0.7247    1.3839 C   0  0  0  0  0  0  0  0  0  0  0  0
    0.1412    0.2162    0.3697 C   0  0  0  0  0  0  0  0  0  0  0  0
   -1.3230    0.3176    0.4045 C   0  0  0  0  0  0  0  0  0  0  0  0
   -2.2335    0.3113   -0.7073 C   0  0  0  0  0  0  0  0  0  0  0  0
   -2.0400   -0.9052   -0.1041 O   0  0  0  0  0  0  0  0  0  0  0  0
    2.8194    0.0200   -0.2972 H   0  0  0  0  0  0  0  0  0  0  0  0
    1.8478   -0.1120   -1.8919 H   0  0  0  0  0  0  0  0  0  0  0  0
    0.4478   -1.7837   -0.5727 H   0  0  0  0  0  0  0  0  0  0  0  0
    0.0979   -1.4082    1.9106 H   0  0  0  0  0  0  0  0  0  0  0  0
    1.5562   -0.2768    2.0056 H   0  0  0  0  0  0  0  0  0  0  0  0
   -1.7605    0.4873    1.4308 H   0  0  0  0  0  0  0  0  0  0  0  0
   -1.8968    0.3832   -1.7528 H   0  0  0  0  0  0  0  0  0  0  0  0
   -3.2112    0.8586   -0.5539 H   0  0  0  0  0  0  0  0  0  0  0  0
  1  2  2  0
  2  3  1  0
  3  4  1  0
  4  5  1  0
  5  6  1  0
  6  7  1  0
  7  8  1  0
  8  9  1  0
  6  2  1  0
  9  7  1  0
  6  4  1  0
  3 10  1  0
  3 11  1  0
  4 12  1  0
  5 13  1  0
  5 14  1  0
  7 15  1  0
  8 16  1  0
  8 17  1  0
M  END
