
     RDKit          3D

 17 18  0  0  0  0  0  0  0  0999 V2000
   -1.0222    2.7240   -0.3874 O   0  0  0  0  0  0  0  0  0  0  0  0
   -0.4924    1.6346   -0.1108 C   0  0  0  0  0  0  0  0  0  0  0  0
    0.8647    1.5284   -0.3131 O   0  0  0  0  0  0  0  0  0  0  0  0
    1.7631    0.4594    0.0079 C   0  0  0  0  0  0  0  0  0  0  0  0
    1.1087   -0.8724   -0.0618 C   0  0  0  0  0  0  0  0  0  0  0  0
   -0.2654   -0.9933    0.4464 C   0  0  0  0  0  0  0  0  0  0  0  0
   -1.3507   -0.5967   -0.5224 C   0  0  0  0  0  0  0  0  0  0  0  0
   -1.4103    0.6031    0.4002 C   0  0  0  0  0  0  0  0  0  0  0  0
   -0.6850   -0.1003    1.3891 O   0  0  0  0  0  0  0  0  0  0  0  0
    2.1836    0.6701    1.0098 H   0  0  0  0  0  0  0  0  0  0  0  0
    2.5668    0.5179   -0.7597 H   0  0  0  0  0  0  0  0  0  0  0  0
    1.7712   -1.5997    0.4938 H   0  0  0  0  0  0  0  0  0  0  0  0
    1.1306   -1.2494   -1.1184 H   0  0  0  0  0  0  0  0  0  0  0  0
   -0.4592   -2.0412    0.8169 H   0  0  0  0  0  0  0  0  0  0  0  0
   -1.0301   -0.3929   -1.5511 H   0  0  0  0  0  0  0  0  0  0  0  0
   -2.2681   -1.2111   -0.4384 H   0  0  0  0  0  0  0  0  0  0  0  0
   -2.4055    0.9195    0.6992 H   0  0  0  0  0  0  0  0  0  0  0  0
  1  2  2  0
  2  3  1  0
  3  4  1  0
  4  5  1  0
  5  6  1  0
  6  7  1  0
  7  8  1  0
  8  9  1  0
  8  2  1  0
  9  6  1  0
  4 10  1  0
  4 11  1  0
  5 12  1  0
  5 13  1  0
  6 14  1  0
  7 15  1  0
  7 16  1  0
  8 17  1  0
M  END
