
     RDKit          3D

 19 20  0  0  0  0  0  0  0  0999 V2000
   -1.9612   -1.5911   -1.7865 O   0  0  0  0  0  0  0  0  0  0  0  0
   -1.6610   -0.7705   -0.9614 C   0  0  0  0  0  0  0  0  0  0  0  0
   -1.6982   -0.7723    0.5462 C   0  0  0  0  0  0  0  0  0  0  0  0
   -0.5428    0.2099    0.4915 C   0  0  0  0  0  0  0  0  0  0  0  0
   -0.6234    1.2118    1.4783 O   0  0  0  0  0  0  0  0  0  0  0  0
    0.8164   -0.4169    0.4491 C   0  0  0  0  0  0  0  0  0  0  0  0
    1.9572    0.5696    0.3949 C   0  0  0  0  0  0  0  0  0  0  0  0
    1.6600   -0.4382   -0.7357 C   0  0  0  0  0  0  0  0  0  0  0  0
   -1.1221    0.6181   -0.8451 C   0  0  0  0  0  0  0  0  0  0  0  0
   -2.6192   -0.2496    0.8663 H   0  0  0  0  0  0  0  0  0  0  0  0
   -1.4916   -1.7360    1.0079 H   0  0  0  0  0  0  0  0  0  0  0  0
    0.2517    1.6278    1.5587 H   0  0  0  0  0  0  0  0  0  0  0  0
    0.9636   -1.2242    1.1934 H   0  0  0  0  0  0  0  0  0  0  0  0
    1.7540    1.6382    0.1789 H   0  0  0  0  0  0  0  0  0  0  0  0
    2.8934    0.3367    0.9819 H   0  0  0  0  0  0  0  0  0  0  0  0
    2.3991   -1.2815   -0.8412 H   0  0  0  0  0  0  0  0  0  0  0  0
    1.4259    0.0326   -1.6910 H   0  0  0  0  0  0  0  0  0  0  0  0
   -0.4089    0.9249   -1.6059 H   0  0  0  0  0  0  0  0  0  0  0  0
   -1.9928    1.3108   -0.6803 H   0  0  0  0  0  0  0  0  0  0  0  0
  1  2  2  0
  2  3  1  0
  3  4  1  0
  4  5  1  0
  4  6  1  0
  6  7  1  0
  7  8  1  0
  4  9  1  0
  9  2  1  0
  8  6  1  0
  3 10  1  0
  3 11  1  0
  5 12  1  0
  6 13  1  0
  7 14  1  0
  7 15  1  0
  8 16  1  0
  8 17  1  0
  9 18  1  0
  9 19  1  0
M  END
