
     RDKit          3D

 16 16  0  0  0  0  0  0  0  0999 V2000
   -2.9563    0.3737    0.4472 O   0  0  0  0  0  0  0  0  0  0  0  0
   -1.7668    0.2895    0.2791 C   0  0  0  0  0  0  0  0  0  0  0  0
   -0.6970    1.1790   -0.2322 C   0  0  0  0  0  0  0  0  0  0  0  0
    0.2643    0.4019    0.6508 C   0  0  0  0  0  0  0  0  0  0  0  0
    1.6149    0.1627    0.0677 C   0  0  0  0  0  0  0  0  0  0  0  0
    1.4828   -0.5615   -1.1090 O   0  0  0  0  0  0  0  0  0  0  0  0
   -0.7212   -0.7382    0.4873 C   0  0  0  0  0  0  0  0  0  0  0  0
   -0.4577   -1.4143   -0.6873 O   0  0  0  0  0  0  0  0  0  0  0  0
   -0.7848    2.2454    0.0143 H   0  0  0  0  0  0  0  0  0  0  0  0
   -0.4144    0.9773   -1.3068 H   0  0  0  0  0  0  0  0  0  0  0  0
    0.2679    0.7966    1.6874 H   0  0  0  0  0  0  0  0  0  0  0  0
    2.1729   -0.4911    0.7772 H   0  0  0  0  0  0  0  0  0  0  0  0
    2.1596    1.1118   -0.1096 H   0  0  0  0  0  0  0  0  0  0  0  0
    1.9310   -1.4411   -1.0842 H   0  0  0  0  0  0  0  0  0  0  0  0
   -0.8452   -1.3689    1.3883 H   0  0  0  0  0  0  0  0  0  0  0  0
   -1.2500   -1.5227   -1.2702 H   0  0  0  0  0  0  0  0  0  0  0  0
  1  2  2  0
  2  3  1  0
  3  4  1  0
  4  5  1  0
  5  6  1  0
  4  7  1  0
  7  8  1  0
  7  2  1  0
  3  9  1  0
  3 10  1  0
  4 11  1  0
  5 12  1  0
  5 13  1  0
  6 14  1  0
  7 15  1  0
  8 16  1  0
M  END
