
     RDKit          3D

 21 21  0  0  0  0  0  0  0  0999 V2000
    1.2353    1.0711   -1.8986 O   0  0  0  0  0  0  0  0  0  0  0  0
    0.8130    0.8914   -0.7829 C   0  0  0  0  0  0  0  0  0  0  0  0
   -0.3631    1.7062   -0.4295 C   0  0  0  0  0  0  0  0  0  0  0  0
   -1.6388    0.9062   -0.3857 C   0  0  0  0  0  0  0  0  0  0  0  0
   -1.4492   -0.4401    0.2658 C   0  0  0  0  0  0  0  0  0  0  0  0
   -0.5574   -1.3588   -0.5063 C   0  0  0  0  0  0  0  0  0  0  0  0
    0.8524   -1.4341    0.0956 C   0  0  0  0  0  0  0  0  0  0  0  0
    1.5452   -0.1001    0.0104 C   0  0  0  0  0  0  0  0  0  0  0  0
    2.8456   -0.3232   -0.4339 O   0  0  0  0  0  0  0  0  0  0  0  0
   -0.2307    2.2041    0.5760 H   0  0  0  0  0  0  0  0  0  0  0  0
   -0.5235    2.5558   -1.1373 H   0  0  0  0  0  0  0  0  0  0  0  0
   -2.3767    1.4660    0.2204 H   0  0  0  0  0  0  0  0  0  0  0  0
   -2.0635    0.7609   -1.3822 H   0  0  0  0  0  0  0  0  0  0  0  0
   -1.0788   -0.3835    1.2965 H   0  0  0  0  0  0  0  0  0  0  0  0
   -2.4710   -0.9058    0.3191 H   0  0  0  0  0  0  0  0  0  0  0  0
   -0.9560   -2.4111   -0.4073 H   0  0  0  0  0  0  0  0  0  0  0  0
   -0.5300   -1.1398   -1.5816 H   0  0  0  0  0  0  0  0  0  0  0  0
    0.7060   -1.7336    1.1480 H   0  0  0  0  0  0  0  0  0  0  0  0
    1.3850   -2.2297   -0.4453 H   0  0  0  0  0  0  0  0  0  0  0  0
    1.6508    0.3149    1.0535 H   0  0  0  0  0  0  0  0  0  0  0  0
    3.2053    0.5832   -0.6822 H   0  0  0  0  0  0  0  0  0  0  0  0
  1  2  2  0
  2  3  1  0
  3  4  1  0
  4  5  1  0
  5  6  1  0
  6  7  1  0
  7  8  1  0
  8  9  1  0
  8  2  1  0
  3 10  1  0
  3 11  1  0
  4 12  1  0
  4 13  1  0
  5 14  1  0
  5 15  1  0
  6 16  1  0
  6 17  1  0
  7 18  1  0
  7 19  1  0
  8 20  1  0
  9 21  1  0
M  END
