
     RDKit          3D

 17 18  0  0  0  0  0  0  0  0999 V2000
    1.9322    2.1408    0.1840 O   0  0  0  0  0  0  0  0  0  0  0  0
    1.4590    1.0405    0.2217 C   0  0  0  0  0  0  0  0  0  0  0  0
    2.1755   -0.2265   -0.0378 C   0  0  0  0  0  0  0  0  0  0  0  0
    1.1005   -1.0921   -0.5859 C   0  0  0  0  0  0  0  0  0  0  0  0
   -0.0806   -0.6014   -0.2756 C   0  0  0  0  0  0  0  0  0  0  0  0
   -1.5574   -0.7451   -0.3671 C   0  0  0  0  0  0  0  0  0  0  0  0
   -2.0363    0.6054    0.1206 C   0  0  0  0  0  0  0  0  0  0  0  0
   -0.9050    1.4380   -0.0500 O   0  0  0  0  0  0  0  0  0  0  0  0
    0.0788    0.6743    0.5278 C   0  0  0  0  0  0  0  0  0  0  0  0
    3.0208   -0.1079   -0.7433 H   0  0  0  0  0  0  0  0  0  0  0  0
    2.5404   -0.6233    0.9529 H   0  0  0  0  0  0  0  0  0  0  0  0
    1.2910   -2.0084   -1.1657 H   0  0  0  0  0  0  0  0  0  0  0  0
   -1.8977   -1.5811    0.2552 H   0  0  0  0  0  0  0  0  0  0  0  0
   -1.8804   -0.8598   -1.4388 H   0  0  0  0  0  0  0  0  0  0  0  0
   -2.9096    0.9784   -0.4143 H   0  0  0  0  0  0  0  0  0  0  0  0
   -2.2187    0.4947    1.2165 H   0  0  0  0  0  0  0  0  0  0  0  0
   -0.1126    0.4736    1.5998 H   0  0  0  0  0  0  0  0  0  0  0  0
  1  2  2  0
  2  3  1  0
  3  4  1  0
  4  5  2  0
  5  6  1  0
  6  7  1  0
  7  8  1  0
  8  9  1  0
  9  2  1  0
  9  5  1  0
  3 10  1  0
  3 11  1  0
  4 12  1  0
  6 13  1  0
  6 14  1  0
  7 15  1  0
  7 16  1  0
  9 17  1  0
M  END
