
     RDKit          3D

 17 18  0  0  0  0  0  0  0  0999 V2000
   -2.4522    1.0420    0.8359 O   0  0  0  0  0  0  0  0  0  0  0  0
   -1.4507    0.5001    0.4377 C   0  0  0  0  0  0  0  0  0  0  0  0
   -1.0782   -0.9228    0.6397 C   0  0  0  0  0  0  0  0  0  0  0  0
   -0.3123   -1.1651   -0.6695 C   0  0  0  0  0  0  0  0  0  0  0  0
    0.5998    0.0203   -0.6128 C   0  0  0  0  0  0  0  0  0  0  0  0
    1.8886   -0.1154    0.0036 C   0  0  0  0  0  0  0  0  0  0  0  0
    1.6781    0.1582   -1.4131 O   0  0  0  0  0  0  0  0  0  0  0  0
   -0.3662    1.1477   -0.3474 C   0  0  0  0  0  0  0  0  0  0  0  0
    0.2305    2.1933    0.3523 O   0  0  0  0  0  0  0  0  0  0  0  0
   -1.9219   -1.5977    0.7543 H   0  0  0  0  0  0  0  0  0  0  0  0
   -0.3038   -1.0252    1.4444 H   0  0  0  0  0  0  0  0  0  0  0  0
    0.1826   -2.1299   -0.5901 H   0  0  0  0  0  0  0  0  0  0  0  0
   -1.0018   -1.1546   -1.5311 H   0  0  0  0  0  0  0  0  0  0  0  0
    2.3060    0.7069    0.5881 H   0  0  0  0  0  0  0  0  0  0  0  0
    2.2982   -1.1534    0.1327 H   0  0  0  0  0  0  0  0  0  0  0  0
   -0.7253    1.5600   -1.3117 H   0  0  0  0  0  0  0  0  0  0  0  0
    0.4290    1.9358    1.2870 H   0  0  0  0  0  0  0  0  0  0  0  0
  1  2  2  0
  2  3  1  0
  3  4  1  0
  4  5  1  0
  5  6  1  0
  6  7  1  0
  5  8  1  0
  8  9  1  0
  8  2  1  0
  7  5  1  0
  3 10  1  0
  3 11  1  0
  4 12  1  0
  4 13  1  0
  6 14  1  0
  6 15  1  0
  8 16  1  0
  9 17  1  0
M  END
