
     RDKit          3D

 17 18  0  0  0  0  0  0  0  0999 V2000
    1.8895   -1.9555    0.6462 O   0  0  0  0  0  0  0  0  0  0  0  0
    1.0865   -1.0128    0.4260 C   0  0  0  0  0  0  0  0  0  0  0  0
    1.5993    0.3617    0.4617 C   0  0  0  0  0  0  0  0  0  0  0  0
    1.0204    1.2347   -0.3740 C   0  0  0  0  0  0  0  0  0  0  0  0
   -0.0526    0.7178   -1.2233 C   0  0  0  0  0  0  0  0  0  0  0  0
   -1.0377   -0.1062   -0.4724 C   0  0  0  0  0  0  0  0  0  0  0  0
   -1.2950    0.1839    0.9541 C   0  0  0  0  0  0  0  0  0  0  0  0
   -1.1611   -1.1919    1.2531 O   0  0  0  0  0  0  0  0  0  0  0  0
   -0.3423   -1.2991    0.1384 C   0  0  0  0  0  0  0  0  0  0  0  0
    2.3934    0.6229    1.1297 H   0  0  0  0  0  0  0  0  0  0  0  0
    1.3707    2.2615   -0.3781 H   0  0  0  0  0  0  0  0  0  0  0  0
    0.4367    0.0329   -1.9784 H   0  0  0  0  0  0  0  0  0  0  0  0
   -0.5308    1.5083   -1.8512 H   0  0  0  0  0  0  0  0  0  0  0  0
   -1.9658   -0.3781   -1.0112 H   0  0  0  0  0  0  0  0  0  0  0  0
   -0.5765    0.7591    1.5332 H   0  0  0  0  0  0  0  0  0  0  0  0
   -2.3617    0.4544    1.2137 H   0  0  0  0  0  0  0  0  0  0  0  0
   -0.4729   -2.1936   -0.4675 H   0  0  0  0  0  0  0  0  0  0  0  0
  1  2  2  0
  2  3  1  0
  3  4  2  0
  4  5  1  0
  5  6  1  0
  6  7  1  0
  7  8  1  0
  8  9  1  0
  9  2  1  0
  9  6  1  0
  3 10  1  0
  4 11  1  0
  5 12  1  0
  5 13  1  0
  6 14  1  0
  7 15  1  0
  7 16  1  0
  9 17  1  0
M  END
