
     RDKit          3D

 19 19  0  0  0  0  0  0  0  0999 V2000
   -1.4535    2.1429   -1.3455 O   0  0  0  0  0  0  0  0  0  0  0  0
   -0.7002    1.3694   -0.8009 C   0  0  0  0  0  0  0  0  0  0  0  0
    0.6362    0.8675   -1.2058 C   0  0  0  0  0  0  0  0  0  0  0  0
    0.4295   -0.3083   -0.3021 C   0  0  0  0  0  0  0  0  0  0  0  0
    1.5546   -0.6391    0.6353 C   0  0  0  0  0  0  0  0  0  0  0  0
    2.7413   -0.9355    0.0132 O   0  0  0  0  0  0  0  0  0  0  0  0
   -0.6123    0.5462    0.4171 C   0  0  0  0  0  0  0  0  0  0  0  0
   -1.8247   -0.3076    0.7236 C   0  0  0  0  0  0  0  0  0  0  0  0
   -2.0997   -1.2082   -0.2838 O   0  0  0  0  0  0  0  0  0  0  0  0
    1.4719    1.5475   -0.9286 H   0  0  0  0  0  0  0  0  0  0  0  0
    0.6613    0.6203   -2.2820 H   0  0  0  0  0  0  0  0  0  0  0  0
   -0.0280   -1.1535   -0.8327 H   0  0  0  0  0  0  0  0  0  0  0  0
    1.7080    0.1694    1.3779 H   0  0  0  0  0  0  0  0  0  0  0  0
    1.2286   -1.5295    1.2277 H   0  0  0  0  0  0  0  0  0  0  0  0
    3.4695   -0.8268    0.7011 H   0  0  0  0  0  0  0  0  0  0  0  0
   -0.1885    1.0721    1.2706 H   0  0  0  0  0  0  0  0  0  0  0  0
   -2.6700    0.3778    0.9192 H   0  0  0  0  0  0  0  0  0  0  0  0
   -1.5583   -0.9027    1.6331 H   0  0  0  0  0  0  0  0  0  0  0  0
   -2.7657   -0.9020   -0.9375 H   0  0  0  0  0  0  0  0  0  0  0  0
  1  2  2  0
  2  3  1  0
  3  4  1  0
  4  5  1  0
  5  6  1  0
  4  7  1  0
  7  8  1  0
  8  9  1  0
  7  2  1  0
  3 10  1  0
  3 11  1  0
  4 12  1  0
  5 13  1  0
  5 14  1  0
  6 15  1  0
  7 16  1  0
  8 17  1  0
  8 18  1  0
  9 19  1  0
M  END
