
     RDKit          3D

 17 18  0  0  0  0  0  0  0  0999 V2000
    0.7821    2.2772    1.1645 O   0  0  0  0  0  0  0  0  0  0  0  0
    0.4353    1.2320    0.6965 C   0  0  0  0  0  0  0  0  0  0  0  0
    1.1700   -0.0239    1.0020 C   0  0  0  0  0  0  0  0  0  0  0  0
    0.6528   -1.1977    0.2379 C   0  0  0  0  0  0  0  0  0  0  0  0
   -0.6359   -0.9087   -0.5041 C   0  0  0  0  0  0  0  0  0  0  0  0
   -0.3435    0.2857   -1.4092 C   0  0  0  0  0  0  0  0  0  0  0  0
   -0.7342    1.1285   -0.2058 C   0  0  0  0  0  0  0  0  0  0  0  0
   -1.5377   -0.0261    0.2482 C   0  0  0  0  0  0  0  0  0  0  0  0
   -2.5198   -0.1244    0.9495 O   0  0  0  0  0  0  0  0  0  0  0  0
    1.1063   -0.2823    2.0988 H   0  0  0  0  0  0  0  0  0  0  0  0
    2.2446    0.1795    0.7171 H   0  0  0  0  0  0  0  0  0  0  0  0
    0.5572   -2.1270    0.8621 H   0  0  0  0  0  0  0  0  0  0  0  0
    1.4012   -1.4783   -0.5574 H   0  0  0  0  0  0  0  0  0  0  0  0
   -1.0474   -1.7866   -0.9886 H   0  0  0  0  0  0  0  0  0  0  0  0
   -1.0019    0.3614   -2.2738 H   0  0  0  0  0  0  0  0  0  0  0  0
    0.7445    0.4395   -1.6078 H   0  0  0  0  0  0  0  0  0  0  0  0
   -1.2735    2.0512   -0.4300 H   0  0  0  0  0  0  0  0  0  0  0  0
  1  2  2  0
  2  3  1  0
  3  4  1  0
  4  5  1  0
  5  6  1  0
  6  7  1  0
  7  8  1  0
  8  9  2  0
  7  2  1  0
  8  5  1  0
  3 10  1  0
  3 11  1  0
  4 12  1  0
  4 13  1  0
  5 14  1  0
  6 15  1  0
  6 16  1  0
  7 17  1  0
M  END
