
     RDKit          3D

 18 18  0  0  0  0  0  0  0  0999 V2000
   -1.6169   -2.2278   -0.6310 O   0  0  0  0  0  0  0  0  0  0  0  0
   -1.4959   -1.1029   -0.1993 C   0  0  0  0  0  0  0  0  0  0  0  0
   -2.3966    0.0576    0.0093 C   0  0  0  0  0  0  0  0  0  0  0  0
   -1.1536    0.9501   -0.1042 C   0  0  0  0  0  0  0  0  0  0  0  0
   -0.3858   -0.2867    0.3498 C   0  0  0  0  0  0  0  0  0  0  0  0
    0.9397   -0.4795   -0.3638 C   0  0  0  0  0  0  0  0  0  0  0  0
    1.9746    0.4245    0.3158 C   0  0  0  0  0  0  0  0  0  0  0  0
    3.2029    0.2881   -0.2949 O   0  0  0  0  0  0  0  0  0  0  0  0
   -3.1513    0.2290   -0.7721 H   0  0  0  0  0  0  0  0  0  0  0  0
   -2.7833    0.0750    1.0563 H   0  0  0  0  0  0  0  0  0  0  0  0
   -1.1232    1.7724    0.6194 H   0  0  0  0  0  0  0  0  0  0  0  0
   -0.9306    1.1904   -1.1474 H   0  0  0  0  0  0  0  0  0  0  0  0
   -0.3174   -0.2701    1.4550 H   0  0  0  0  0  0  0  0  0  0  0  0
    0.8050   -0.1982   -1.4203 H   0  0  0  0  0  0  0  0  0  0  0  0
    1.2425   -1.5281   -0.2945 H   0  0  0  0  0  0  0  0  0  0  0  0
    1.9878    0.2466    1.4094 H   0  0  0  0  0  0  0  0  0  0  0  0
    1.6130    1.4662    0.1469 H   0  0  0  0  0  0  0  0  0  0  0  0
    3.5892   -0.6066   -0.1344 H   0  0  0  0  0  0  0  0  0  0  0  0
  1  2  2  0
  2  3  1  0
  3  4  1  0
  4  5  1  0
  5  6  1  0
  6  7  1  0
  7  8  1  0
  5  2  1  0
  3  9  1  0
  3 10  1  0
  4 11  1  0
  4 12  1  0
  5 13  1  0
  6 14  1  0
  6 15  1  0
  7 16  1  0
  7 17  1  0
  8 18  1  0
M  END
