
     RDKit          3D

 15 16  0  0  0  0  0  0  0  0999 V2000
   -2.7999   -0.5246   -1.2974 O   0  0  0  0  0  0  0  0  0  0  0  0
   -1.6459   -0.3941   -0.8404 C   0  0  0  0  0  0  0  0  0  0  0  0
   -1.1729   -0.4093    0.5680 C   0  0  0  0  0  0  0  0  0  0  0  0
   -0.1139    0.6720    0.5435 C   0  0  0  0  0  0  0  0  0  0  0  0
    1.2008    0.2862    1.0586 C   0  0  0  0  0  0  0  0  0  0  0  0
    1.7961    0.4358    2.1013 O   0  0  0  0  0  0  0  0  0  0  0  0
    1.4893   -0.3633   -0.2386 C   0  0  0  0  0  0  0  0  0  0  0  0
    0.4373    0.5248   -0.8653 C   0  0  0  0  0  0  0  0  0  0  0  0
   -0.4940   -0.1951   -1.6068 O   0  0  0  0  0  0  0  0  0  0  0  0
   -1.9597   -0.1935    1.2976 H   0  0  0  0  0  0  0  0  0  0  0  0
   -0.7047   -1.4008    0.7328 H   0  0  0  0  0  0  0  0  0  0  0  0
   -0.4900    1.6670    0.7962 H   0  0  0  0  0  0  0  0  0  0  0  0
    2.4662   -0.1526   -0.6863 H   0  0  0  0  0  0  0  0  0  0  0  0
    1.2141   -1.4347   -0.3067 H   0  0  0  0  0  0  0  0  0  0  0  0
    0.7772    1.4821   -1.2566 H   0  0  0  0  0  0  0  0  0  0  0  0
  1  2  2  0
  2  3  1  0
  3  4  1  0
  4  5  1  0
  5  6  2  0
  5  7  1  0
  7  8  1  0
  8  9  1  0
  9  2  1  0
  8  4  1  0
  3 10  1  0
  3 11  1  0
  4 12  1  0
  7 13  1  0
  7 14  1  0
  8 15  1  0
M  END
