
     RDKit          3D

 17 18  0  0  0  0  0  0  0  0999 V2000
    1.2294    2.2126   -0.8173 O   0  0  0  0  0  0  0  0  0  0  0  0
    0.8652    1.0906   -0.4234 C   0  0  0  0  0  0  0  0  0  0  0  0
    1.8046    0.0038   -0.1576 C   0  0  0  0  0  0  0  0  0  0  0  0
    1.2632   -1.1655    0.2206 C   0  0  0  0  0  0  0  0  0  0  0  0
   -0.2056   -1.2213    0.2591 C   0  0  0  0  0  0  0  0  0  0  0  0
   -0.8215   -0.5379   -0.9456 C   0  0  0  0  0  0  0  0  0  0  0  0
   -0.5643    0.7787   -0.1949 C   0  0  0  0  0  0  0  0  0  0  0  0
   -1.4649    1.7681   -0.4250 O   0  0  0  0  0  0  0  0  0  0  0  0
   -0.7289   -0.0270    1.0740 C   0  0  0  0  0  0  0  0  0  0  0  0
    2.8617    0.0797   -0.2429 H   0  0  0  0  0  0  0  0  0  0  0  0
    1.8568   -2.0115    0.4803 H   0  0  0  0  0  0  0  0  0  0  0  0
   -0.6569   -2.1742    0.5473 H   0  0  0  0  0  0  0  0  0  0  0  0
   -0.2509   -0.5849   -1.8725 H   0  0  0  0  0  0  0  0  0  0  0  0
   -1.8949   -0.7075   -0.9985 H   0  0  0  0  0  0  0  0  0  0  0  0
   -1.4096    2.4321    0.2982 H   0  0  0  0  0  0  0  0  0  0  0  0
   -1.8046   -0.1676    1.2915 H   0  0  0  0  0  0  0  0  0  0  0  0
   -0.0789    0.2322    1.9066 H   0  0  0  0  0  0  0  0  0  0  0  0
  1  2  2  0
  2  3  1  0
  3  4  2  0
  4  5  1  0
  5  6  1  0
  6  7  1  0
  7  8  1  0
  7  9  1  0
  7  2  1  0
  9  5  1  0
  3 10  1  0
  4 11  1  0
  5 12  1  0
  6 13  1  0
  6 14  1  0
  8 15  1  0
  9 16  1  0
  9 17  1  0
M  END
