
     RDKit          3D

 17 19  0  0  0  0  0  0  0  0999 V2000
   -2.0779   -0.4326   -1.8468 O   0  0  0  0  0  0  0  0  0  0  0  0
   -1.3582   -0.2686   -0.8858 C   0  0  0  0  0  0  0  0  0  0  0  0
   -1.1446    1.0607   -0.2602 C   0  0  0  0  0  0  0  0  0  0  0  0
    0.0146    0.8819    0.7014 C   0  0  0  0  0  0  0  0  0  0  0  0
    1.2512    1.0160   -0.1046 C   0  0  0  0  0  0  0  0  0  0  0  0
    1.7228   -0.1660   -0.4659 C   0  0  0  0  0  0  0  0  0  0  0  0
    0.8402   -1.2194    0.0677 C   0  0  0  0  0  0  0  0  0  0  0  0
   -0.5928   -1.2946   -0.1827 C   0  0  0  0  0  0  0  0  0  0  0  0
   -0.0836   -0.5914    1.0217 C   0  0  0  0  0  0  0  0  0  0  0  0
   -0.8693    1.8440   -0.9939 H   0  0  0  0  0  0  0  0  0  0  0  0
   -2.0015    1.4226    0.3165 H   0  0  0  0  0  0  0  0  0  0  0  0
   -0.0319    1.5333    1.5734 H   0  0  0  0  0  0  0  0  0  0  0  0
    1.7099    1.9528   -0.3647 H   0  0  0  0  0  0  0  0  0  0  0  0
    2.6170   -0.3806   -1.0628 H   0  0  0  0  0  0  0  0  0  0  0  0
    1.3665   -2.1229    0.4245 H   0  0  0  0  0  0  0  0  0  0  0  0
   -1.0738   -2.2899    0.0371 H   0  0  0  0  0  0  0  0  0  0  0  0
   -0.2885   -0.9453    2.0251 H   0  0  0  0  0  0  0  0  0  0  0  0
  1  2  2  0
  2  3  1  0
  3  4  1  0
  4  5  1  0
  5  6  2  0
  6  7  1  0
  7  8  1  0
  8  9  1  0
  8  2  1  0
  9  4  1  0
  9  7  1  0
  3 10  1  0
  3 11  1  0
  4 12  1  0
  5 13  1  0
  6 14  1  0
  7 15  1  0
  8 16  1  0
  9 17  1  0
M  END
