
     RDKit          3D

 14 14  0  0  0  0  0  0  0  0999 V2000
   -2.2989    1.2073   -0.0461 O   0  0  0  0  0  0  0  0  0  0  0  0
   -1.2774    0.5951   -0.1465 C   0  0  0  0  0  0  0  0  0  0  0  0
   -1.1027   -0.8453   -0.3792 C   0  0  0  0  0  0  0  0  0  0  0  0
    0.3070   -1.1352    0.0534 C   0  0  0  0  0  0  0  0  0  0  0  0
    0.8501   -2.1996   -0.1538 O   0  0  0  0  0  0  0  0  0  0  0  0
    0.7980    0.0874    0.7236 C   0  0  0  0  0  0  0  0  0  0  0  0
    2.1652    0.1898    0.5062 O   0  0  0  0  0  0  0  0  0  0  0  0
    0.0756    1.1652   -0.0566 C   0  0  0  0  0  0  0  0  0  0  0  0
   -1.7722   -1.4853    0.2202 H   0  0  0  0  0  0  0  0  0  0  0  0
   -1.2311   -1.1524   -1.4366 H   0  0  0  0  0  0  0  0  0  0  0  0
    0.5139    0.1532    1.7839 H   0  0  0  0  0  0  0  0  0  0  0  0
    2.3066    0.0099   -0.4653 H   0  0  0  0  0  0  0  0  0  0  0  0
    0.5574    1.2630   -1.0509 H   0  0  0  0  0  0  0  0  0  0  0  0
    0.1086    2.1469    0.4478 H   0  0  0  0  0  0  0  0  0  0  0  0
  1  2  2  0
  2  3  1  0
  3  4  1  0
  4  5  2  0
  4  6  1  0
  6  7  1  0
  6  8  1  0
  8  2  1  0
  3  9  1  0
  3 10  1  0
  6 11  1  0
  7 12  1  0
  8 13  1  0
  8 14  1  0
M  END
