
     RDKit          3D

 17 19  0  0  0  0  0  0  0  0999 V2000
    2.3060    1.7457   -0.1194 O   0  0  0  0  0  0  0  0  0  0  0  0
    1.5191    0.8645    0.0509 C   0  0  0  0  0  0  0  0  0  0  0  0
    1.6714   -0.6350   -0.1389 C   0  0  0  0  0  0  0  0  0  0  0  0
    0.2868   -0.9670   -0.6188 C   0  0  0  0  0  0  0  0  0  0  0  0
   -1.0752   -0.8867   -0.1606 C   0  0  0  0  0  0  0  0  0  0  0  0
   -1.9106    0.4217   -0.3238 C   0  0  0  0  0  0  0  0  0  0  0  0
   -0.8043    1.3058   -0.4805 O   0  0  0  0  0  0  0  0  0  0  0  0
    0.0980    1.0192    0.5226 C   0  0  0  0  0  0  0  0  0  0  0  0
   -0.1912   -0.4401    0.7696 C   0  0  0  0  0  0  0  0  0  0  0  0
    1.9733   -1.1317    0.7989 H   0  0  0  0  0  0  0  0  0  0  0  0
    2.3947   -0.9045   -0.8937 H   0  0  0  0  0  0  0  0  0  0  0  0
    0.2353   -0.3330   -1.5521 H   0  0  0  0  0  0  0  0  0  0  0  0
   -1.7113   -1.7775   -0.2374 H   0  0  0  0  0  0  0  0  0  0  0  0
   -2.4730    0.4053   -1.2541 H   0  0  0  0  0  0  0  0  0  0  0  0
   -2.4700    0.6277    0.5835 H   0  0  0  0  0  0  0  0  0  0  0  0
    0.0130    1.6413    1.4090 H   0  0  0  0  0  0  0  0  0  0  0  0
    0.1379   -0.9557    1.6446 H   0  0  0  0  0  0  0  0  0  0  0  0
  1  2  2  0
  2  3  1  0
  3  4  1  0
  4  5  1  0
  5  6  1  0
  6  7  1  0
  7  8  1  0
  8  9  1  0
  8  2  1  0
  9  4  1  0
  9  5  1  0
  3 10  1  0
  3 11  1  0
  4 12  1  0
  5 13  1  0
  6 14  1  0
  6 15  1  0
  8 16  1  0
  9 17  1  0
M  END
