
     RDKit          3D

 19 19  0  0  0  0  0  0  0  0999 V2000
    0.2028   -2.1733   -1.5481 O   0  0  0  0  0  0  0  0  0  0  0  0
    0.0013   -1.3129   -0.7068 C   0  0  0  0  0  0  0  0  0  0  0  0
   -1.3301   -0.9758   -0.2054 C   0  0  0  0  0  0  0  0  0  0  0  0
   -1.5056    0.4176    0.2773 C   0  0  0  0  0  0  0  0  0  0  0  0
   -0.2638    1.1684    0.5768 C   0  0  0  0  0  0  0  0  0  0  0  0
    0.8482    0.8883   -0.4207 C   0  0  0  0  0  0  0  0  0  0  0  0
    1.9234    1.7085   -0.2338 O   0  0  0  0  0  0  0  0  0  0  0  0
    1.1961   -0.5894   -0.1868 C   0  0  0  0  0  0  0  0  0  0  0  0
    1.1883   -0.7655    1.2035 O   0  0  0  0  0  0  0  0  0  0  0  0
   -2.0808   -1.1725   -1.0235 H   0  0  0  0  0  0  0  0  0  0  0  0
   -1.5834   -1.7081    0.6044 H   0  0  0  0  0  0  0  0  0  0  0  0
   -2.1240    0.3920    1.2230 H   0  0  0  0  0  0  0  0  0  0  0  0
   -2.1285    1.0108   -0.4377 H   0  0  0  0  0  0  0  0  0  0  0  0
    0.1687    0.9664    1.5847 H   0  0  0  0  0  0  0  0  0  0  0  0
   -0.4607    2.2609    0.5336 H   0  0  0  0  0  0  0  0  0  0  0  0
    0.4079    1.0043   -1.4291 H   0  0  0  0  0  0  0  0  0  0  0  0
    2.7523    1.3153   -0.6174 H   0  0  0  0  0  0  0  0  0  0  0  0
    2.1270   -0.8790   -0.6600 H   0  0  0  0  0  0  0  0  0  0  0  0
    0.6609   -1.5559    1.4662 H   0  0  0  0  0  0  0  0  0  0  0  0
  1  2  2  0
  2  3  1  0
  3  4  1  0
  4  5  1  0
  5  6  1  0
  6  7  1  0
  6  8  1  0
  8  9  1  0
  8  2  1  0
  3 10  1  0
  3 11  1  0
  4 12  1  0
  4 13  1  0
  5 14  1  0
  5 15  1  0
  6 16  1  0
  7 17  1  0
  8 18  1  0
  9 19  1  0
M  END
