
     RDKit          3D

 17 18  0  0  0  0  0  0  0  0999 V2000
    0.4297    2.9037   -0.5455 O   0  0  0  0  0  0  0  0  0  0  0  0
    0.2441    1.7371   -0.1356 C   0  0  0  0  0  0  0  0  0  0  0  0
    1.2267    1.0234    0.6633 C   0  0  0  0  0  0  0  0  0  0  0  0
    1.3626   -0.2787    0.5169 C   0  0  0  0  0  0  0  0  0  0  0  0
    0.5244   -1.0068   -0.4523 C   0  0  0  0  0  0  0  0  0  0  0  0
    0.3307   -2.2954    0.0953 O   0  0  0  0  0  0  0  0  0  0  0  0
   -0.8261   -0.4321   -0.6796 C   0  0  0  0  0  0  0  0  0  0  0  0
   -1.5771    0.0386    0.5101 C   0  0  0  0  0  0  0  0  0  0  0  0
   -1.0035    1.0073   -0.4450 C   0  0  0  0  0  0  0  0  0  0  0  0
    1.8413    1.6029    1.3747 H   0  0  0  0  0  0  0  0  0  0  0  0
    2.1150   -0.7877    1.1392 H   0  0  0  0  0  0  0  0  0  0  0  0
    1.0786   -1.1908   -1.4049 H   0  0  0  0  0  0  0  0  0  0  0  0
    1.1709   -2.8187   -0.0820 H   0  0  0  0  0  0  0  0  0  0  0  0
   -1.3749   -0.8794   -1.5460 H   0  0  0  0  0  0  0  0  0  0  0  0
   -1.1225   -0.1093    1.5255 H   0  0  0  0  0  0  0  0  0  0  0  0
   -2.6830   -0.0677    0.5484 H   0  0  0  0  0  0  0  0  0  0  0  0
   -1.7368    1.5536   -1.0825 H   0  0  0  0  0  0  0  0  0  0  0  0
  1  2  2  0
  2  3  1  0
  3  4  2  0
  4  5  1  0
  5  6  1  0
  5  7  1  0
  7  8  1  0
  8  9  1  0
  9  2  1  0
  9  7  1  0
  3 10  1  0
  4 11  1  0
  5 12  1  0
  6 13  1  0
  7 14  1  0
  8 15  1  0
  8 16  1  0
  9 17  1  0
M  END
