
     RDKit          3D

 17 17  0  0  0  0  0  0  0  0999 V2000
    1.5615   -1.6774    1.2649 O   0  0  0  0  0  0  0  0  0  0  0  0
    0.9544   -1.0142    0.4531 C   0  0  0  0  0  0  0  0  0  0  0  0
    1.4813    0.2783   -0.0759 C   0  0  0  0  0  0  0  0  0  0  0  0
    0.3999    1.3340    0.1029 C   0  0  0  0  0  0  0  0  0  0  0  0
   -0.8776    0.8537   -0.5510 C   0  0  0  0  0  0  0  0  0  0  0  0
   -1.3434   -0.3379    0.2806 C   0  0  0  0  0  0  0  0  0  0  0  0
   -0.3745   -1.4597   -0.0711 C   0  0  0  0  0  0  0  0  0  0  0  0
    1.7594    0.1911   -1.1446 H   0  0  0  0  0  0  0  0  0  0  0  0
    2.3586    0.5884    0.4940 H   0  0  0  0  0  0  0  0  0  0  0  0
    0.1780    1.4137    1.1927 H   0  0  0  0  0  0  0  0  0  0  0  0
    0.6920    2.2956   -0.3515 H   0  0  0  0  0  0  0  0  0  0  0  0
   -1.6412    1.6277   -0.5849 H   0  0  0  0  0  0  0  0  0  0  0  0
   -0.6323    0.4583   -1.5653 H   0  0  0  0  0  0  0  0  0  0  0  0
   -2.3828   -0.5961    0.0897 H   0  0  0  0  0  0  0  0  0  0  0  0
   -1.1780   -0.0769    1.3621 H   0  0  0  0  0  0  0  0  0  0  0  0
   -0.6858   -2.4309    0.2982 H   0  0  0  0  0  0  0  0  0  0  0  0
   -0.2696   -1.4478   -1.1938 H   0  0  0  0  0  0  0  0  0  0  0  0
  1  2  2  0
  2  3  1  0
  3  4  1  0
  4  5  1  0
  5  6  1  0
  6  7  1  0
  7  2  1  0
  3  8  1  0
  3  9  1  0
  4 10  1  0
  4 11  1  0
  5 12  1  0
  5 13  1  0
  6 14  1  0
  6 15  1  0
  7 16  1  0
  7 17  1  0
M  END
