
     RDKit          3D

 14 15  0  0  0  0  0  0  0  0999 V2000
   -1.8985    1.2401    1.6424 O   0  0  0  0  0  0  0  0  0  0  0  0
   -0.9276    0.8984    0.8949 C   0  0  0  0  0  0  0  0  0  0  0  0
    0.3546    1.4267    0.9299 O   0  0  0  0  0  0  0  0  0  0  0  0
    1.2516    0.6852    0.1719 C   0  0  0  0  0  0  0  0  0  0  0  0
    1.3954   -0.7832    0.3252 C   0  0  0  0  0  0  0  0  0  0  0  0
    0.4106   -0.1845   -0.6670 C   0  0  0  0  0  0  0  0  0  0  0  0
   -1.0007   -0.1409   -0.1603 C   0  0  0  0  0  0  0  0  0  0  0  0
   -1.9014    0.1432   -1.1553 O   0  0  0  0  0  0  0  0  0  0  0  0
    2.1349    1.2134   -0.2369 H   0  0  0  0  0  0  0  0  0  0  0  0
    2.2476   -1.2699   -0.1489 H   0  0  0  0  0  0  0  0  0  0  0  0
    1.0157   -1.2591    1.2448 H   0  0  0  0  0  0  0  0  0  0  0  0
    0.6278   -0.2025   -1.7363 H   0  0  0  0  0  0  0  0  0  0  0  0
   -1.2141   -1.1540    0.2850 H   0  0  0  0  0  0  0  0  0  0  0  0
   -2.4958   -0.6129   -1.3893 H   0  0  0  0  0  0  0  0  0  0  0  0
  1  2  2  0
  2  3  1  0
  3  4  1  0
  4  5  1  0
  5  6  1  0
  6  7  1  0
  7  8  1  0
  7  2  1  0
  6  4  1  0
  4  9  1  0
  5 10  1  0
  5 11  1  0
  6 12  1  0
  7 13  1  0
  8 14  1  0
M  END
