
     RDKit          3D

 15 16  0  0  0  0  0  0  0  0999 V2000
    2.7244   -1.4137    0.2876 O   0  0  0  0  0  0  0  0  0  0  0  0
    1.7973   -0.6501   -0.0225 C   0  0  0  0  0  0  0  0  0  0  0  0
    0.3869   -0.9759   -0.4696 C   0  0  0  0  0  0  0  0  0  0  0  0
   -0.3965    0.1596   -0.2300 C   0  0  0  0  0  0  0  0  0  0  0  0
   -1.4595   -0.2167    0.6351 C   0  0  0  0  0  0  0  0  0  0  0  0
   -1.5195    0.9927   -0.0263 C   0  0  0  0  0  0  0  0  0  0  0  0
    0.5353    1.1093   -0.5415 O   0  0  0  0  0  0  0  0  0  0  0  0
    1.8033    0.8209   -0.0448 C   0  0  0  0  0  0  0  0  0  0  0  0
    2.7351    1.5887    0.3039 O   0  0  0  0  0  0  0  0  0  0  0  0
    0.5189   -1.1560   -1.5833 H   0  0  0  0  0  0  0  0  0  0  0  0
    0.2081   -1.9862   -0.0695 H   0  0  0  0  0  0  0  0  0  0  0  0
   -2.1277   -1.0431    0.2737 H   0  0  0  0  0  0  0  0  0  0  0  0
   -1.3817   -0.2751    1.7628 H   0  0  0  0  0  0  0  0  0  0  0  0
   -2.2256    1.1354   -0.9018 H   0  0  0  0  0  0  0  0  0  0  0  0
   -1.5989    1.9101    0.6262 H   0  0  0  0  0  0  0  0  0  0  0  0
  1  2  2  0
  2  3  1  0
  3  4  1  0
  4  5  1  0
  5  6  1  0
  4  7  1  0
  7  8  1  0
  8  9  2  0
  8  2  1  0
  6  4  1  0
  3 10  1  0
  3 11  1  0
  5 12  1  0
  5 13  1  0
  6 14  1  0
  6 15  1  0
M  END
