
     RDKit          3D

 15 16  0  0  0  0  0  0  0  0999 V2000
   -1.6109    2.0524    0.7932 O   0  0  0  0  0  0  0  0  0  0  0  0
   -1.1255    0.9960    0.3695 C   0  0  0  0  0  0  0  0  0  0  0  0
   -1.7785   -0.2986    0.3180 C   0  0  0  0  0  0  0  0  0  0  0  0
   -0.9684   -1.2203   -0.1593 C   0  0  0  0  0  0  0  0  0  0  0  0
    0.3475   -0.6604   -0.4941 C   0  0  0  0  0  0  0  0  0  0  0  0
    1.1391   -0.0135    0.6391 C   0  0  0  0  0  0  0  0  0  0  0  0
    2.5166   -0.0238    0.4167 O   0  0  0  0  0  0  0  0  0  0  0  0
    0.2313    0.7908   -0.1859 C   0  0  0  0  0  0  0  0  0  0  0  0
    0.6993    1.6431   -1.1757 O   0  0  0  0  0  0  0  0  0  0  0  0
   -2.8065   -0.5535    0.6187 H   0  0  0  0  0  0  0  0  0  0  0  0
   -1.2092   -2.2830   -0.3036 H   0  0  0  0  0  0  0  0  0  0  0  0
    0.8749   -0.9966   -1.3938 H   0  0  0  0  0  0  0  0  0  0  0  0
    0.8659   -0.2697    1.6860 H   0  0  0  0  0  0  0  0  0  0  0  0
    2.8405   -0.9060    0.7362 H   0  0  0  0  0  0  0  0  0  0  0  0
   -0.0159    1.7430   -1.8650 H   0  0  0  0  0  0  0  0  0  0  0  0
  1  2  2  0
  2  3  1  0
  3  4  2  0
  4  5  1  0
  5  6  1  0
  6  7  1  0
  6  8  1  0
  8  9  1  0
  8  2  1  0
  8  5  1  0
  3 10  1  0
  4 11  1  0
  5 12  1  0
  6 13  1  0
  7 14  1  0
  9 15  1  0
M  END
