
     RDKit          3D

 14 14  0  0  0  0  0  0  0  0999 V2000
   -2.2461   -1.3070   -0.1831 O   0  0  0  0  0  0  0  0  0  0  0  0
   -1.3007   -0.5034   -0.1565 C   0  0  0  0  0  0  0  0  0  0  0  0
   -1.4172    0.9265    0.0810 C   0  0  0  0  0  0  0  0  0  0  0  0
   -0.2655    1.4240    0.4662 C   0  0  0  0  0  0  0  0  0  0  0  0
    0.7300    0.3340    0.5165 C   0  0  0  0  0  0  0  0  0  0  0  0
    1.9942    0.7521    0.1278 O   0  0  0  0  0  0  0  0  0  0  0  0
    0.1510   -0.7275   -0.3454 C   0  0  0  0  0  0  0  0  0  0  0  0
    0.5428   -2.0138    0.0189 O   0  0  0  0  0  0  0  0  0  0  0  0
   -2.3077    1.5628   -0.0261 H   0  0  0  0  0  0  0  0  0  0  0  0
   -0.0442    2.4679    0.7165 H   0  0  0  0  0  0  0  0  0  0  0  0
    0.8330   -0.0230    1.5814 H   0  0  0  0  0  0  0  0  0  0  0  0
    2.3970    0.2150   -0.5839 H   0  0  0  0  0  0  0  0  0  0  0  0
    0.4393   -0.5217   -1.4132 H   0  0  0  0  0  0  0  0  0  0  0  0
    0.4942   -2.5860   -0.8000 H   0  0  0  0  0  0  0  0  0  0  0  0
  1  2  2  0
  2  3  1  0
  3  4  2  0
  4  5  1  0
  5  6  1  0
  5  7  1  0
  7  8  1  0
  7  2  1  0
  3  9  1  0
  4 10  1  0
  5 11  1  0
  6 12  1  0
  7 13  1  0
  8 14  1  0
M  END
