
     RDKit          3D

 15 17  0  0  0  0  0  0  0  0999 V2000
    3.0097   -1.0938    0.2476 O   0  0  0  0  0  0  0  0  0  0  0  0
    1.9457   -0.5707   -0.2018 C   0  0  0  0  0  0  0  0  0  0  0  0
    0.9129   -1.3045   -0.7587 O   0  0  0  0  0  0  0  0  0  0  0  0
   -0.4056   -0.8607   -0.6783 C   0  0  0  0  0  0  0  0  0  0  0  0
   -0.8881   -0.7456    0.7546 C   0  0  0  0  0  0  0  0  0  0  0  0
   -0.5637    0.7001    0.7780 C   0  0  0  0  0  0  0  0  0  0  0  0
    0.4946    1.3266   -0.0211 C   0  0  0  0  0  0  0  0  0  0  0  0
    1.7801    0.8027   -0.1461 O   0  0  0  0  0  0  0  0  0  0  0  0
   -0.5429    0.6322   -0.7772 C   0  0  0  0  0  0  0  0  0  0  0  0
   -1.0602   -1.4551   -1.3372 H   0  0  0  0  0  0  0  0  0  0  0  0
   -0.4118   -1.4042    1.4784 H   0  0  0  0  0  0  0  0  0  0  0  0
   -2.0041   -0.9196    0.7532 H   0  0  0  0  0  0  0  0  0  0  0  0
   -1.3337    1.3521    1.2315 H   0  0  0  0  0  0  0  0  0  0  0  0
    0.4700    2.4438   -0.0754 H   0  0  0  0  0  0  0  0  0  0  0  0
   -1.4030    1.0967   -1.2474 H   0  0  0  0  0  0  0  0  0  0  0  0
  1  2  2  0
  2  3  1  0
  3  4  1  0
  4  5  1  0
  5  6  1  0
  6  7  1  0
  7  8  1  0
  7  9  1  0
  8  2  1  0
  9  4  1  0
  9  6  1  0
  4 10  1  0
  5 11  1  0
  5 12  1  0
  6 13  1  0
  7 14  1  0
  9 15  1  0
M  END
