
     RDKit          3D

 18 18  0  0  0  0  0  0  0  0999 V2000
    2.1165    1.8761   -0.9913 O   0  0  0  0  0  0  0  0  0  0  0  0
    1.1889    1.1395   -0.5363 C   0  0  0  0  0  0  0  0  0  0  0  0
    1.6739   -0.1278   -0.0114 C   0  0  0  0  0  0  0  0  0  0  0  0
    0.6859   -1.2357    0.0758 C   0  0  0  0  0  0  0  0  0  0  0  0
   -0.6015   -0.8775    0.7432 C   0  0  0  0  0  0  0  0  0  0  0  0
   -1.4651   -0.1559   -0.2736 C   0  0  0  0  0  0  0  0  0  0  0  0
   -1.2520    1.3108   -0.0946 C   0  0  0  0  0  0  0  0  0  0  0  0
   -0.0411    1.7469   -0.6641 O   0  0  0  0  0  0  0  0  0  0  0  0
    2.5014   -0.4742   -0.6861 H   0  0  0  0  0  0  0  0  0  0  0  0
    2.1637    0.0161    0.9872 H   0  0  0  0  0  0  0  0  0  0  0  0
    0.5015   -1.7278   -0.9230 H   0  0  0  0  0  0  0  0  0  0  0  0
    1.1614   -2.0449    0.6955 H   0  0  0  0  0  0  0  0  0  0  0  0
   -0.3704   -0.2147    1.5986 H   0  0  0  0  0  0  0  0  0  0  0  0
   -1.1497   -1.7658    1.0709 H   0  0  0  0  0  0  0  0  0  0  0  0
   -2.5452   -0.3694   -0.1286 H   0  0  0  0  0  0  0  0  0  0  0  0
   -1.1823   -0.5177   -1.2945 H   0  0  0  0  0  0  0  0  0  0  0  0
   -2.0774    1.8979   -0.5694 H   0  0  0  0  0  0  0  0  0  0  0  0
   -1.3083    1.5240    1.0017 H   0  0  0  0  0  0  0  0  0  0  0  0
  1  2  2  0
  2  3  1  0
  3  4  1  0
  4  5  1  0
  5  6  1  0
  6  7  1  0
  7  8  1  0
  8  2  1  0
  3  9  1  0
  3 10  1  0
  4 11  1  0
  4 12  1  0
  5 13  1  0
  5 14  1  0
  6 15  1  0
  6 16  1  0
  7 17  1  0
  7 18  1  0
M  END
