
     RDKit          3D

 15 17  0  0  0  0  0  0  0  0999 V2000
    1.2585   -2.4443    0.4353 O   0  0  0  0  0  0  0  0  0  0  0  0
    0.8533   -1.3276    0.2190 C   0  0  0  0  0  0  0  0  0  0  0  0
    1.5387   -0.0708    0.5632 C   0  0  0  0  0  0  0  0  0  0  0  0
    0.9804    0.6063    1.6246 O   0  0  0  0  0  0  0  0  0  0  0  0
    0.6467    1.0576    0.3547 C   0  0  0  0  0  0  0  0  0  0  0  0
   -0.5486    0.5066   -0.3568 C   0  0  0  0  0  0  0  0  0  0  0  0
   -0.8272    1.1169   -1.5772 O   0  0  0  0  0  0  0  0  0  0  0  0
   -1.5264   -0.3664    0.3207 C   0  0  0  0  0  0  0  0  0  0  0  0
   -0.4152   -0.9815   -0.4365 C   0  0  0  0  0  0  0  0  0  0  0  0
    2.6051    0.0728    0.2998 H   0  0  0  0  0  0  0  0  0  0  0  0
    1.0589    2.0434    0.1232 H   0  0  0  0  0  0  0  0  0  0  0  0
   -0.9971    2.0842   -1.4663 H   0  0  0  0  0  0  0  0  0  0  0  0
   -1.4552   -0.3782    1.4378 H   0  0  0  0  0  0  0  0  0  0  0  0
   -2.5411   -0.4124   -0.1450 H   0  0  0  0  0  0  0  0  0  0  0  0
   -0.6308   -1.5066   -1.3964 H   0  0  0  0  0  0  0  0  0  0  0  0
  1  2  2  0
  2  3  1  0
  3  4  1  0
  4  5  1  0
  5  6  1  0
  6  7  1  0
  6  8  1  0
  8  9  1  0
  9  2  1  0
  5  3  1  0
  9  6  1  0
  3 10  1  0
  5 11  1  0
  7 12  1  0
  8 13  1  0
  8 14  1  0
  9 15  1  0
M  END
