
     RDKit          3D

 19 20  0  0  0  0  0  0  0  0999 V2000
    0.0444   -1.1507   -2.2678 O   0  0  0  0  0  0  0  0  0  0  0  0
   -0.0326   -0.5583   -1.2357 C   0  0  0  0  0  0  0  0  0  0  0  0
   -0.7475   -0.9775   -0.0009 C   0  0  0  0  0  0  0  0  0  0  0  0
   -1.7019    0.2054    0.1315 C   0  0  0  0  0  0  0  0  0  0  0  0
   -0.7685    1.3602   -0.2190 C   0  0  0  0  0  0  0  0  0  0  0  0
    0.5033    0.7459   -0.7654 C   0  0  0  0  0  0  0  0  0  0  0  0
    1.3109    0.2585    0.4266 C   0  0  0  0  0  0  0  0  0  0  0  0
    2.4577   -0.3624   -0.1178 O   0  0  0  0  0  0  0  0  0  0  0  0
    0.3760   -0.7962    1.0084 C   0  0  0  0  0  0  0  0  0  0  0  0
   -1.2066   -1.9386   -0.0189 H   0  0  0  0  0  0  0  0  0  0  0  0
   -2.4307    0.1229   -0.6974 H   0  0  0  0  0  0  0  0  0  0  0  0
   -2.1388    0.2935    1.1232 H   0  0  0  0  0  0  0  0  0  0  0  0
   -0.4738    1.9154    0.7062 H   0  0  0  0  0  0  0  0  0  0  0  0
   -1.2095    2.0620   -0.9263 H   0  0  0  0  0  0  0  0  0  0  0  0
    1.0384    1.3272   -1.4827 H   0  0  0  0  0  0  0  0  0  0  0  0
    1.5536    1.0525    1.1280 H   0  0  0  0  0  0  0  0  0  0  0  0
    2.5027   -1.3178    0.1304 H   0  0  0  0  0  0  0  0  0  0  0  0
   -0.0061   -0.5056    1.9981 H   0  0  0  0  0  0  0  0  0  0  0  0
    0.9286   -1.7364    1.0795 H   0  0  0  0  0  0  0  0  0  0  0  0
  1  2  2  0
  2  3  1  0
  3  4  1  0
  4  5  1  0
  5  6  1  0
  6  7  1  0
  7  8  1  0
  7  9  1  0
  6  2  1  0
  9  3  1  0
  3 10  1  0
  4 11  1  0
  4 12  1  0
  5 13  1  0
  5 14  1  0
  6 15  1  0
  7 16  1  0
  8 17  1  0
  9 18  1  0
  9 19  1  0
M  END
