
     RDKit          3D

 15 16  0  0  0  0  0  0  0  0999 V2000
   -1.6267   -1.1619   -2.1427 O   0  0  0  0  0  0  0  0  0  0  0  0
   -1.2600   -0.8257   -1.0039 C   0  0  0  0  0  0  0  0  0  0  0  0
   -1.3007   -1.4396    0.2339 O   0  0  0  0  0  0  0  0  0  0  0  0
   -0.5762   -0.4298    0.9241 C   0  0  0  0  0  0  0  0  0  0  0  0
    0.8344   -0.7344    1.1222 C   0  0  0  0  0  0  0  0  0  0  0  0
    1.5870   -0.1560    0.2082 C   0  0  0  0  0  0  0  0  0  0  0  0
    0.7942    0.6334   -0.7541 C   0  0  0  0  0  0  0  0  0  0  0  0
   -0.6250    0.3279   -0.3837 C   0  0  0  0  0  0  0  0  0  0  0  0
   -1.4153    1.4612   -0.2356 O   0  0  0  0  0  0  0  0  0  0  0  0
   -1.1331    0.0042    1.7594 H   0  0  0  0  0  0  0  0  0  0  0  0
    1.2216   -1.3683    1.9340 H   0  0  0  0  0  0  0  0  0  0  0  0
    2.6880   -0.2198    0.1233 H   0  0  0  0  0  0  0  0  0  0  0  0
    0.9720    0.3165   -1.8050 H   0  0  0  0  0  0  0  0  0  0  0  0
    1.0100    1.7275   -0.6244 H   0  0  0  0  0  0  0  0  0  0  0  0
   -1.1703    1.8647    0.6442 H   0  0  0  0  0  0  0  0  0  0  0  0
  1  2  2  0
  2  3  1  0
  3  4  1  0
  4  5  1  0
  5  6  2  0
  6  7  1  0
  7  8  1  0
  8  9  1  0
  8  2  1  0
  8  4  1  0
  4 10  1  0
  5 11  1  0
  6 12  1  0
  7 13  1  0
  7 14  1  0
  9 15  1  0
M  END
