
     RDKit          3D

 17 18  0  0  0  0  0  0  0  0999 V2000
   -1.3871   -1.2044    2.4173 O   0  0  0  0  0  0  0  0  0  0  0  0
   -0.8881   -0.6952    1.4305 C   0  0  0  0  0  0  0  0  0  0  0  0
   -1.5074   -0.0364    0.2604 C   0  0  0  0  0  0  0  0  0  0  0  0
   -0.5205    1.0798   -0.0275 C   0  0  0  0  0  0  0  0  0  0  0  0
   -0.7114    1.6682   -1.2544 O   0  0  0  0  0  0  0  0  0  0  0  0
    0.7973    0.3936    0.1207 C   0  0  0  0  0  0  0  0  0  0  0  0
    1.0039   -1.0283   -0.1827 C   0  0  0  0  0  0  0  0  0  0  0  0
    2.2967   -1.4855   -0.3193 O   0  0  0  0  0  0  0  0  0  0  0  0
    0.5907   -0.6309    1.1862 C   0  0  0  0  0  0  0  0  0  0  0  0
   -1.6227   -0.7118   -0.6133 H   0  0  0  0  0  0  0  0  0  0  0  0
   -2.5163    0.3371    0.5026 H   0  0  0  0  0  0  0  0  0  0  0  0
   -0.6372    1.8124    0.8073 H   0  0  0  0  0  0  0  0  0  0  0  0
   -0.9800    2.6290   -1.1226 H   0  0  0  0  0  0  0  0  0  0  0  0
    1.6975    1.0621    0.1805 H   0  0  0  0  0  0  0  0  0  0  0  0
    0.2689   -1.5927   -0.8082 H   0  0  0  0  0  0  0  0  0  0  0  0
    2.8527   -0.9438   -0.9195 H   0  0  0  0  0  0  0  0  0  0  0  0
    1.2629   -0.6533    2.0439 H   0  0  0  0  0  0  0  0  0  0  0  0
  1  2  2  0
  2  3  1  0
  3  4  1  0
  4  5  1  0
  4  6  1  0
  6  7  1  0
  7  8  1  0
  7  9  1  0
  9  2  1  0
  9  6  1  0
  3 10  1  0
  3 11  1  0
  4 12  1  0
  5 13  1  0
  6 14  1  0
  7 15  1  0
  8 16  1  0
  9 17  1  0
M  END
