
     RDKit          3D

 17 18  0  0  0  0  0  0  0  0999 V2000
    0.8070    0.2740    2.3658 O   0  0  0  0  0  0  0  0  0  0  0  0
    0.9536    0.0572    1.1647 C   0  0  0  0  0  0  0  0  0  0  0  0
    1.8556    0.5257    0.0758 C   0  0  0  0  0  0  0  0  0  0  0  0
    0.8504    0.0181   -0.9183 C   0  0  0  0  0  0  0  0  0  0  0  0
   -0.0864    0.9113   -1.3390 O   0  0  0  0  0  0  0  0  0  0  0  0
   -1.3051    0.6051   -0.8076 C   0  0  0  0  0  0  0  0  0  0  0  0
   -1.1994   -0.6207    0.0228 C   0  0  0  0  0  0  0  0  0  0  0  0
   -1.9101   -0.5933    1.1951 O   0  0  0  0  0  0  0  0  0  0  0  0
    0.2785   -0.8028    0.1992 C   0  0  0  0  0  0  0  0  0  0  0  0
    2.8114   -0.0574   -0.0111 H   0  0  0  0  0  0  0  0  0  0  0  0
    1.9787    1.6168    0.1441 H   0  0  0  0  0  0  0  0  0  0  0  0
    1.2800   -0.6139   -1.7207 H   0  0  0  0  0  0  0  0  0  0  0  0
   -1.6562    1.5026   -0.2266 H   0  0  0  0  0  0  0  0  0  0  0  0
   -2.0902    0.4435   -1.5996 H   0  0  0  0  0  0  0  0  0  0  0  0
   -1.5654   -1.5028   -0.5649 H   0  0  0  0  0  0  0  0  0  0  0  0
   -1.6442    0.0815    1.8411 H   0  0  0  0  0  0  0  0  0  0  0  0
    0.6418   -1.8450    0.1791 H   0  0  0  0  0  0  0  0  0  0  0  0
  1  2  2  0
  2  3  1  0
  3  4  1  0
  4  5  1  0
  5  6  1  0
  6  7  1  0
  7  8  1  0
  7  9  1  0
  9  2  1  0
  9  4  1  0
  3 10  1  0
  3 11  1  0
  4 12  1  0
  6 13  1  0
  6 14  1  0
  7 15  1  0
  8 16  1  0
  9 17  1  0
M  END
