
     RDKit          3D

 14 14  0  0  0  0  0  0  0  0999 V2000
   -1.5049    1.9875   -1.0051 O   0  0  0  0  0  0  0  0  0  0  0  0
   -0.8282    1.1379   -0.4191 C   0  0  0  0  0  0  0  0  0  0  0  0
    0.6113    1.2854   -0.3317 C   0  0  0  0  0  0  0  0  0  0  0  0
    1.4433    0.2782   -0.1711 C   0  0  0  0  0  0  0  0  0  0  0  0
    0.8842   -1.0892   -0.0732 C   0  0  0  0  0  0  0  0  0  0  0  0
   -0.3756   -1.0026    0.6947 C   0  0  0  0  0  0  0  0  0  0  0  0
   -0.5364   -1.6754    1.6821 O   0  0  0  0  0  0  0  0  0  0  0  0
   -1.4280   -0.0799    0.2302 C   0  0  0  0  0  0  0  0  0  0  0  0
    1.0570    2.2843   -0.4006 H   0  0  0  0  0  0  0  0  0  0  0  0
    2.5074    0.4157   -0.1094 H   0  0  0  0  0  0  0  0  0  0  0  0
    1.6222   -1.7605    0.4355 H   0  0  0  0  0  0  0  0  0  0  0  0
    0.7153   -1.5262   -1.0897 H   0  0  0  0  0  0  0  0  0  0  0  0
   -2.0600    0.2982    1.0707 H   0  0  0  0  0  0  0  0  0  0  0  0
   -2.1077   -0.5534   -0.5134 H   0  0  0  0  0  0  0  0  0  0  0  0
  1  2  2  0
  2  3  1  0
  3  4  2  0
  4  5  1  0
  5  6  1  0
  6  7  2  0
  6  8  1  0
  8  2  1  0
  3  9  1  0
  4 10  1  0
  5 11  1  0
  5 12  1  0
  8 13  1  0
  8 14  1  0
M  END
