
     RDKit          3D

 15 16  0  0  0  0  0  0  0  0999 V2000
    0.5148   -1.6509    1.9214 O   0  0  0  0  0  0  0  0  0  0  0  0
    0.2682   -0.9567    0.9817 C   0  0  0  0  0  0  0  0  0  0  0  0
    0.0687   -0.9409   -0.4536 C   0  0  0  0  0  0  0  0  0  0  0  0
   -1.0988   -0.0278   -0.1854 C   0  0  0  0  0  0  0  0  0  0  0  0
   -1.4274    0.8126   -1.2253 O   0  0  0  0  0  0  0  0  0  0  0  0
   -0.0049    0.4564    0.7370 C   0  0  0  0  0  0  0  0  0  0  0  0
   -0.0600    1.4081    1.5513 O   0  0  0  0  0  0  0  0  0  0  0  0
    0.8973    0.3174   -0.4633 C   0  0  0  0  0  0  0  0  0  0  0  0
    2.2230    0.1829   -0.1366 O   0  0  0  0  0  0  0  0  0  0  0  0
    0.1080   -1.6841   -1.1226 H   0  0  0  0  0  0  0  0  0  0  0  0
   -1.9293   -0.5488    0.3197 H   0  0  0  0  0  0  0  0  0  0  0  0
   -2.0320    0.3142   -1.8289 H   0  0  0  0  0  0  0  0  0  0  0  0
   -0.6790    2.1289    1.3629 H   0  0  0  0  0  0  0  0  0  0  0  0
    0.6363    0.9587   -1.3046 H   0  0  0  0  0  0  0  0  0  0  0  0
    2.5148   -0.7701   -0.1537 H   0  0  0  0  0  0  0  0  0  0  0  0
  1  2  2  0
  2  3  1  0
  3  4  1  0
  4  5  1  0
  4  6  1  0
  6  7  1  0
  6  8  1  0
  8  9  1  0
  6  2  1  0
  8  3  1  0
  3 10  1  0
  4 11  1  0
  5 12  1  0
  7 13  1  0
  8 14  1  0
  9 15  1  0
M  END
