
     RDKit          3D

 15 16  0  0  0  0  0  0  0  0999 V2000
   -0.1279    2.3079   -0.6589 O   0  0  0  0  0  0  0  0  0  0  0  0
    0.5632    1.3136   -0.3366 C   0  0  0  0  0  0  0  0  0  0  0  0
    1.9102    1.2978   -0.0092 O   0  0  0  0  0  0  0  0  0  0  0  0
    2.3172   -0.0236    0.2958 C   0  0  0  0  0  0  0  0  0  0  0  0
    1.0915   -0.8291    0.1262 C   0  0  0  0  0  0  0  0  0  0  0  0
    0.0821   -0.0536   -0.2387 C   0  0  0  0  0  0  0  0  0  0  0  0
   -1.2864   -0.5726   -0.4861 C   0  0  0  0  0  0  0  0  0  0  0  0
   -2.3421   -0.0110    0.3722 C   0  0  0  0  0  0  0  0  0  0  0  0
   -2.2261    0.2788   -1.0622 O   0  0  0  0  0  0  0  0  0  0  0  0
    3.0757   -0.4086   -0.4328 H   0  0  0  0  0  0  0  0  0  0  0  0
    2.6619   -0.1099    1.3435 H   0  0  0  0  0  0  0  0  0  0  0  0
    1.0585   -1.9089    0.2872 H   0  0  0  0  0  0  0  0  0  0  0  0
   -1.3499   -1.6272   -0.7725 H   0  0  0  0  0  0  0  0  0  0  0  0
   -2.1770    0.9357    0.9333 H   0  0  0  0  0  0  0  0  0  0  0  0
   -3.2509   -0.5894    0.6388 H   0  0  0  0  0  0  0  0  0  0  0  0
  1  2  2  0
  2  3  1  0
  3  4  1  0
  4  5  1  0
  5  6  2  0
  6  7  1  0
  7  8  1  0
  8  9  1  0
  6  2  1  0
  9  7  1  0
  4 10  1  0
  4 11  1  0
  5 12  1  0
  7 13  1  0
  8 14  1  0
  8 15  1  0
M  END
