
     RDKit          3D

 17 18  0  0  0  0  0  0  0  0999 V2000
    3.3360    0.6436   -0.1989 O   0  0  0  0  0  0  0  0  0  0  0  0
    2.1435    0.3899   -0.1703 C   0  0  0  0  0  0  0  0  0  0  0  0
    0.9760    1.2052    0.3291 C   0  0  0  0  0  0  0  0  0  0  0  0
    0.1438   -0.0071    0.2366 C   0  0  0  0  0  0  0  0  0  0  0  0
    1.2053   -0.7043   -0.5444 C   0  0  0  0  0  0  0  0  0  0  0  0
   -0.3288   -0.5988    1.3651 O   0  0  0  0  0  0  0  0  0  0  0  0
   -1.3383   -1.1851    0.5664 C   0  0  0  0  0  0  0  0  0  0  0  0
   -1.2158    0.0693   -0.3135 C   0  0  0  0  0  0  0  0  0  0  0  0
   -1.9636    1.0856    0.2765 O   0  0  0  0  0  0  0  0  0  0  0  0
    0.7141    1.9270   -0.4994 H   0  0  0  0  0  0  0  0  0  0  0  0
    1.1338    1.6769    1.3037 H   0  0  0  0  0  0  0  0  0  0  0  0
    1.0366   -0.8458   -1.6141 H   0  0  0  0  0  0  0  0  0  0  0  0
    1.4583   -1.6856   -0.0575 H   0  0  0  0  0  0  0  0  0  0  0  0
   -2.3057   -1.2966    1.0539 H   0  0  0  0  0  0  0  0  0  0  0  0
   -0.9747   -2.0492   -0.0388 H   0  0  0  0  0  0  0  0  0  0  0  0
   -1.3855   -0.1031   -1.3778 H   0  0  0  0  0  0  0  0  0  0  0  0
   -2.6349    1.4782   -0.3166 H   0  0  0  0  0  0  0  0  0  0  0  0
  1  2  2  0
  2  3  1  0
  3  4  1  0
  4  5  1  0
  4  6  1  0
  6  7  1  0
  7  8  1  0
  8  9  1  0
  5  2  1  0
  8  4  1  0
  3 10  1  0
  3 11  1  0
  5 12  1  0
  5 13  1  0
  7 14  1  0
  7 15  1  0
  8 16  1  0
  9 17  1  0
M  END
