
     RDKit          3D

 15 17  0  0  0  0  0  0  0  0999 V2000
    2.3547   -1.3685   -0.8926 O   0  0  0  0  0  0  0  0  0  0  0  0
    1.2043   -1.0079   -0.5577 C   0  0  0  0  0  0  0  0  0  0  0  0
    0.0440   -1.7079   -0.8709 O   0  0  0  0  0  0  0  0  0  0  0  0
   -1.0502   -1.2394   -0.0883 C   0  0  0  0  0  0  0  0  0  0  0  0
   -1.2808    0.2400   -0.2217 C   0  0  0  0  0  0  0  0  0  0  0  0
   -0.0863    1.0687   -0.6444 C   0  0  0  0  0  0  0  0  0  0  0  0
    0.7708    0.1825    0.2139 C   0  0  0  0  0  0  0  0  0  0  0  0
    1.6832    0.7699    1.0318 O   0  0  0  0  0  0  0  0  0  0  0  0
   -0.4795   -0.3142    0.8753 C   0  0  0  0  0  0  0  0  0  0  0  0
   -1.8488   -1.9067    0.2076 H   0  0  0  0  0  0  0  0  0  0  0  0
   -2.2655    0.6854   -0.1092 H   0  0  0  0  0  0  0  0  0  0  0  0
   -0.1396    2.0915   -0.2235 H   0  0  0  0  0  0  0  0  0  0  0  0
    0.1098    0.9993   -1.7309 H   0  0  0  0  0  0  0  0  0  0  0  0
    1.6630    1.7386    1.0879 H   0  0  0  0  0  0  0  0  0  0  0  0
   -0.6791   -0.2312    1.9227 H   0  0  0  0  0  0  0  0  0  0  0  0
  1  2  2  0
  2  3  1  0
  3  4  1  0
  4  5  1  0
  5  6  1  0
  6  7  1  0
  7  8  1  0
  7  9  1  0
  7  2  1  0
  9  4  1  0
  9  5  1  0
  4 10  1  0
  5 11  1  0
  6 12  1  0
  6 13  1  0
  8 14  1  0
  9 15  1  0
M  END
