
     RDKit          3D

 17 19  0  0  0  0  0  0  0  0999 V2000
   -2.0397   -0.6166   -1.7143 O   0  0  0  0  0  0  0  0  0  0  0  0
   -1.5916   -0.3410   -0.6355 C   0  0  0  0  0  0  0  0  0  0  0  0
   -1.6421    0.9053    0.1842 C   0  0  0  0  0  0  0  0  0  0  0  0
   -0.2911    0.4533    0.7475 C   0  0  0  0  0  0  0  0  0  0  0  0
   -0.7934   -0.9473    0.4776 C   0  0  0  0  0  0  0  0  0  0  0  0
    0.3127   -1.6596    0.1011 O   0  0  0  0  0  0  0  0  0  0  0  0
    1.1868   -0.8417   -0.5575 C   0  0  0  0  0  0  0  0  0  0  0  0
    2.1489    0.0468    0.1010 C   0  0  0  0  0  0  0  0  0  0  0  0
    0.8114    0.5876   -0.2514 C   0  0  0  0  0  0  0  0  0  0  0  0
   -1.6262    1.8428   -0.3673 H   0  0  0  0  0  0  0  0  0  0  0  0
   -2.4288    0.7826    0.9603 H   0  0  0  0  0  0  0  0  0  0  0  0
   -0.0962    0.7180    1.7758 H   0  0  0  0  0  0  0  0  0  0  0  0
   -1.3847   -1.4155    1.2555 H   0  0  0  0  0  0  0  0  0  0  0  0
    1.4091   -1.1361   -1.6105 H   0  0  0  0  0  0  0  0  0  0  0  0
    2.3555    0.0182    1.1948 H   0  0  0  0  0  0  0  0  0  0  0  0
    3.0092    0.4066   -0.4827 H   0  0  0  0  0  0  0  0  0  0  0  0
    0.6602    1.1968   -1.1786 H   0  0  0  0  0  0  0  0  0  0  0  0
  1  2  2  0
  2  3  1  0
  3  4  1  0
  4  5  1  0
  5  6  1  0
  6  7  1  0
  7  8  1  0
  8  9  1  0
  5  2  1  0
  9  7  1  0
  9  4  1  0
  3 10  1  0
  3 11  1  0
  4 12  1  0
  5 13  1  0
  7 14  1  0
  8 15  1  0
  8 16  1  0
  9 17  1  0
M  END
