
     RDKit          3D

 17 18  0  0  0  0  0  0  0  0999 V2000
    1.5958    2.2351    0.8180 O   0  0  0  0  0  0  0  0  0  0  0  0
    1.1657    1.1640    0.3320 C   0  0  0  0  0  0  0  0  0  0  0  0
    1.9937    0.0396   -0.1671 C   0  0  0  0  0  0  0  0  0  0  0  0
    1.0989   -1.1458    0.0964 C   0  0  0  0  0  0  0  0  0  0  0  0
   -0.2523   -0.5887   -0.0127 C   0  0  0  0  0  0  0  0  0  0  0  0
   -0.2287    0.7188    0.1194 C   0  0  0  0  0  0  0  0  0  0  0  0
   -1.6001    1.2192    0.0061 C   0  0  0  0  0  0  0  0  0  0  0  0
   -2.3195    0.1857   -0.5866 O   0  0  0  0  0  0  0  0  0  0  0  0
   -1.6716   -0.9885   -0.2250 C   0  0  0  0  0  0  0  0  0  0  0  0
    2.9658   -0.0332    0.3551 H   0  0  0  0  0  0  0  0  0  0  0  0
    2.1095    0.1667   -1.2654 H   0  0  0  0  0  0  0  0  0  0  0  0
    1.2986   -1.9515   -0.6435 H   0  0  0  0  0  0  0  0  0  0  0  0
    1.3258   -1.5107    1.1338 H   0  0  0  0  0  0  0  0  0  0  0  0
   -1.6715    2.1688   -0.5595 H   0  0  0  0  0  0  0  0  0  0  0  0
   -1.9962    1.4534    1.0322 H   0  0  0  0  0  0  0  0  0  0  0  0
   -2.1001   -1.4618    0.6818 H   0  0  0  0  0  0  0  0  0  0  0  0
   -1.7139   -1.6710   -1.1149 H   0  0  0  0  0  0  0  0  0  0  0  0
  1  2  2  0
  2  3  1  0
  3  4  1  0
  4  5  1  0
  5  6  2  0
  6  7  1  0
  7  8  1  0
  8  9  1  0
  6  2  1  0
  9  5  1  0
  3 10  1  0
  3 11  1  0
  4 12  1  0
  4 13  1  0
  7 14  1  0
  7 15  1  0
  9 16  1  0
  9 17  1  0
M  END
