
     RDKit          3D

 21 21  0  0  0  0  0  0  0  0999 V2000
   -1.0401    2.0612    1.1483 O   0  0  0  0  0  0  0  0  0  0  0  0
   -0.8760    1.2850    0.2360 C   0  0  0  0  0  0  0  0  0  0  0  0
   -1.9815    0.3291    0.0143 C   0  0  0  0  0  0  0  0  0  0  0  0
   -1.4494   -1.0572    0.2930 C   0  0  0  0  0  0  0  0  0  0  0  0
   -0.1385   -1.3019   -0.4480 C   0  0  0  0  0  0  0  0  0  0  0  0
    1.0520   -0.8646    0.3367 C   0  0  0  0  0  0  0  0  0  0  0  0
    1.4468    0.5561    0.1441 C   0  0  0  0  0  0  0  0  0  0  0  0
    2.6079    0.7204   -0.6060 O   0  0  0  0  0  0  0  0  0  0  0  0
    0.3771    1.4049   -0.5049 C   0  0  0  0  0  0  0  0  0  0  0  0
   -2.8139    0.5172    0.7045 H   0  0  0  0  0  0  0  0  0  0  0  0
   -2.2898    0.3432   -1.0507 H   0  0  0  0  0  0  0  0  0  0  0  0
   -2.2103   -1.7864   -0.0328 H   0  0  0  0  0  0  0  0  0  0  0  0
   -1.2178   -1.1375    1.3784 H   0  0  0  0  0  0  0  0  0  0  0  0
   -0.1601   -0.9192   -1.4708 H   0  0  0  0  0  0  0  0  0  0  0  0
   -0.0724   -2.4256   -0.5420 H   0  0  0  0  0  0  0  0  0  0  0  0
    0.8779   -1.1436    1.4113 H   0  0  0  0  0  0  0  0  0  0  0  0
    1.9170   -1.5077    0.0057 H   0  0  0  0  0  0  0  0  0  0  0  0
    1.6359    1.0002    1.1470 H   0  0  0  0  0  0  0  0  0  0  0  0
    3.3297    0.2734   -0.1323 H   0  0  0  0  0  0  0  0  0  0  0  0
    0.7246    2.4657   -0.4421 H   0  0  0  0  0  0  0  0  0  0  0  0
    0.2811    1.1872   -1.5900 H   0  0  0  0  0  0  0  0  0  0  0  0
  1  2  2  0
  2  3  1  0
  3  4  1  0
  4  5  1  0
  5  6  1  0
  6  7  1  0
  7  8  1  0
  7  9  1  0
  9  2  1  0
  3 10  1  0
  3 11  1  0
  4 12  1  0
  4 13  1  0
  5 14  1  0
  5 15  1  0
  6 16  1  0
  6 17  1  0
  7 18  1  0
  8 19  1  0
  9 20  1  0
  9 21  1  0
M  END
