
     RDKit          3D

 16 17  0  0  0  0  0  0  0  0999 V2000
    2.3941    0.6248    1.3677 O   0  0  0  0  0  0  0  0  0  0  0  0
    1.6785    0.2179    0.4824 C   0  0  0  0  0  0  0  0  0  0  0  0
    0.8609   -0.9868    0.1320 C   0  0  0  0  0  0  0  0  0  0  0  0
    0.0161   -0.0675   -0.7314 C   0  0  0  0  0  0  0  0  0  0  0  0
   -1.0944    0.5810    0.0476 C   0  0  0  0  0  0  0  0  0  0  0  0
   -2.0690   -0.3996    0.6722 C   0  0  0  0  0  0  0  0  0  0  0  0
   -1.1574    0.3331    1.4347 O   0  0  0  0  0  0  0  0  0  0  0  0
    1.2398    0.8121   -0.8140 C   0  0  0  0  0  0  0  0  0  0  0  0
    0.3375   -1.4442    0.9881 H   0  0  0  0  0  0  0  0  0  0  0  0
    1.4911   -1.6786   -0.4697 H   0  0  0  0  0  0  0  0  0  0  0  0
   -0.2527   -0.4671   -1.7242 H   0  0  0  0  0  0  0  0  0  0  0  0
   -1.4386    1.5824   -0.2262 H   0  0  0  0  0  0  0  0  0  0  0  0
   -1.8445   -1.4637    0.6171 H   0  0  0  0  0  0  0  0  0  0  0  0
   -3.1232   -0.0461    0.6074 H   0  0  0  0  0  0  0  0  0  0  0  0
    1.0159    1.8983   -0.7778 H   0  0  0  0  0  0  0  0  0  0  0  0
    1.9458    0.5040   -1.6059 H   0  0  0  0  0  0  0  0  0  0  0  0
  1  2  2  0
  2  3  1  0
  3  4  1  0
  4  5  1  0
  5  6  1  0
  6  7  1  0
  4  8  1  0
  8  2  1  0
  7  5  1  0
  3  9  1  0
  3 10  1  0
  4 11  1  0
  5 12  1  0
  6 13  1  0
  6 14  1  0
  8 15  1  0
  8 16  1  0
M  END
