
     RDKit          3D

 16 16  0  0  0  0  0  0  0  0999 V2000
    2.7883    1.1787    0.0337 O   0  0  0  0  0  0  0  0  0  0  0  0
    1.6251    0.7001   -0.0051 C   0  0  0  0  0  0  0  0  0  0  0  0
    0.4879    1.6173   -0.0172 C   0  0  0  0  0  0  0  0  0  0  0  0
   -0.7858    1.3431    0.2280 C   0  0  0  0  0  0  0  0  0  0  0  0
   -1.3420    0.0197    0.5744 C   0  0  0  0  0  0  0  0  0  0  0  0
   -0.9305   -0.9899   -0.5015 C   0  0  0  0  0  0  0  0  0  0  0  0
    0.4371   -1.5092   -0.2463 C   0  0  0  0  0  0  0  0  0  0  0  0
    1.5229   -0.7752   -0.0353 C   0  0  0  0  0  0  0  0  0  0  0  0
    0.7506    2.6445   -0.2606 H   0  0  0  0  0  0  0  0  0  0  0  0
   -1.4817    2.1927    0.1633 H   0  0  0  0  0  0  0  0  0  0  0  0
   -0.9630   -0.3301    1.5673 H   0  0  0  0  0  0  0  0  0  0  0  0
   -2.4393    0.0803    0.6544 H   0  0  0  0  0  0  0  0  0  0  0  0
   -0.9780   -0.4358   -1.4803 H   0  0  0  0  0  0  0  0  0  0  0  0
   -1.6415   -1.8174   -0.5684 H   0  0  0  0  0  0  0  0  0  0  0  0
    0.5160   -2.5862   -0.2394 H   0  0  0  0  0  0  0  0  0  0  0  0
    2.4339   -1.3328    0.1331 H   0  0  0  0  0  0  0  0  0  0  0  0
  1  2  2  0
  2  3  1  0
  3  4  2  0
  4  5  1  0
  5  6  1  0
  6  7  1  0
  7  8  2  0
  8  2  1  0
  3  9  1  0
  4 10  1  0
  5 11  1  0
  5 12  1  0
  6 13  1  0
  6 14  1  0
  7 15  1  0
  8 16  1  0
M  END
