
     RDKit          3D

 17 18  0  0  0  0  0  0  0  0999 V2000
    1.1130    2.3173   -1.2384 O   0  0  0  0  0  0  0  0  0  0  0  0
    0.9635    1.1722   -0.7753 C   0  0  0  0  0  0  0  0  0  0  0  0
    1.8453    0.4740    0.1252 C   0  0  0  0  0  0  0  0  0  0  0  0
    1.3744   -0.7213    0.4166 C   0  0  0  0  0  0  0  0  0  0  0  0
    0.0875   -0.9907   -0.2631 C   0  0  0  0  0  0  0  0  0  0  0  0
   -1.1468   -0.7282    0.5416 C   0  0  0  0  0  0  0  0  0  0  0  0
   -0.9862   -0.5843    1.9002 O   0  0  0  0  0  0  0  0  0  0  0  0
   -1.3976    0.5285   -0.2420 C   0  0  0  0  0  0  0  0  0  0  0  0
   -0.1649    0.2619   -1.0485 C   0  0  0  0  0  0  0  0  0  0  0  0
    2.7809    0.8655    0.5231 H   0  0  0  0  0  0  0  0  0  0  0  0
    1.8843   -1.4088    1.0770 H   0  0  0  0  0  0  0  0  0  0  0  0
    0.0655   -1.9299   -0.8542 H   0  0  0  0  0  0  0  0  0  0  0  0
   -1.9350   -1.4823    0.3269 H   0  0  0  0  0  0  0  0  0  0  0  0
   -0.5163    0.2487    2.1601 H   0  0  0  0  0  0  0  0  0  0  0  0
   -1.3099    1.4586    0.3534 H   0  0  0  0  0  0  0  0  0  0  0  0
   -2.3189    0.5070   -0.8900 H   0  0  0  0  0  0  0  0  0  0  0  0
   -0.3389    0.0116   -2.1125 H   0  0  0  0  0  0  0  0  0  0  0  0
  1  2  2  0
  2  3  1  0
  3  4  2  0
  4  5  1  0
  5  6  1  0
  6  7  1  0
  6  8  1  0
  8  9  1  0
  9  2  1  0
  9  5  1  0
  3 10  1  0
  4 11  1  0
  5 12  1  0
  6 13  1  0
  7 14  1  0
  8 15  1  0
  8 16  1  0
  9 17  1  0
M  END
