
     RDKit          3D

 18 19  0  0  0  0  0  0  0  0999 V2000
   -0.4671   -2.3317    0.5537 O   0  0  0  0  0  0  0  0  0  0  0  0
   -0.4725   -1.1363    0.3976 C   0  0  0  0  0  0  0  0  0  0  0  0
   -1.6659   -0.2770    0.6434 C   0  0  0  0  0  0  0  0  0  0  0  0
   -1.6165    0.6329   -0.5895 C   0  0  0  0  0  0  0  0  0  0  0  0
   -0.1484    0.7986   -0.9155 C   0  0  0  0  0  0  0  0  0  0  0  0
    0.5757   -0.1890   -0.0428 C   0  0  0  0  0  0  0  0  0  0  0  0
    1.6151    0.2434    0.9159 C   0  0  0  0  0  0  0  0  0  0  0  0
    1.9596   -0.5744   -0.2795 C   0  0  0  0  0  0  0  0  0  0  0  0
   -2.5981   -0.8340    0.7143 H   0  0  0  0  0  0  0  0  0  0  0  0
   -1.4244    0.3090    1.5682 H   0  0  0  0  0  0  0  0  0  0  0  0
   -2.1679    0.1172   -1.3996 H   0  0  0  0  0  0  0  0  0  0  0  0
   -2.0533    1.6148   -0.3837 H   0  0  0  0  0  0  0  0  0  0  0  0
   -0.0077    0.4537   -1.9787 H   0  0  0  0  0  0  0  0  0  0  0  0
    0.2054    1.8340   -0.7875 H   0  0  0  0  0  0  0  0  0  0  0  0
    1.5577   -0.2125    1.9304 H   0  0  0  0  0  0  0  0  0  0  0  0
    1.9975    1.2769    0.9325 H   0  0  0  0  0  0  0  0  0  0  0  0
    2.5057   -0.0630   -1.1020 H   0  0  0  0  0  0  0  0  0  0  0  0
    2.2052   -1.6627   -0.1772 H   0  0  0  0  0  0  0  0  0  0  0  0
  1  2  2  0
  2  3  1  0
  3  4  1  0
  4  5  1  0
  5  6  1  0
  6  7  1  0
  7  8  1  0
  6  2  1  0
  8  6  1  0
  3  9  1  0
  3 10  1  0
  4 11  1  0
  4 12  1  0
  5 13  1  0
  5 14  1  0
  7 15  1  0
  7 16  1  0
  8 17  1  0
  8 18  1  0
M  END
