
     RDKit          3D

 14 14  0  0  0  0  0  0  0  0999 V2000
    2.8725   -0.6788    0.1762 O   0  0  0  0  0  0  0  0  0  0  0  0
    1.6459   -0.4069    0.1597 C   0  0  0  0  0  0  0  0  0  0  0  0
    0.8052   -1.4214   -0.2847 O   0  0  0  0  0  0  0  0  0  0  0  0
   -0.5636   -1.2658   -0.6193 C   0  0  0  0  0  0  0  0  0  0  0  0
   -1.1355   -0.2984    0.4058 C   0  0  0  0  0  0  0  0  0  0  0  0
   -1.0286    1.0027    0.0754 O   0  0  0  0  0  0  0  0  0  0  0  0
    0.1786    1.6010    0.0856 C   0  0  0  0  0  0  0  0  0  0  0  0
    1.2617    0.8809    0.5885 O   0  0  0  0  0  0  0  0  0  0  0  0
   -0.5730   -0.7146   -1.6037 H   0  0  0  0  0  0  0  0  0  0  0  0
   -1.1081   -2.2167   -0.6612 H   0  0  0  0  0  0  0  0  0  0  0  0
   -2.2050   -0.5644    0.5180 H   0  0  0  0  0  0  0  0  0  0  0  0
   -0.6306   -0.4577    1.4011 H   0  0  0  0  0  0  0  0  0  0  0  0
    0.3801    2.0011   -0.9525 H   0  0  0  0  0  0  0  0  0  0  0  0
    0.1004    2.5389    0.7112 H   0  0  0  0  0  0  0  0  0  0  0  0
  1  2  2  0
  2  3  1  0
  3  4  1  0
  4  5  1  0
  5  6  1  0
  6  7  1  0
  7  8  1  0
  8  2  1  0
  4  9  1  0
  4 10  1  0
  5 11  1  0
  5 12  1  0
  7 13  1  0
  7 14  1  0
M  END
