
     RDKit          3D

 14 15  0  0  0  0  0  0  0  0999 V2000
   -0.0131    2.6430    0.0978 O   0  0  0  0  0  0  0  0  0  0  0  0
    0.0662    1.4041   -0.0920 C   0  0  0  0  0  0  0  0  0  0  0  0
    1.3589    0.7793    0.1683 C   0  0  0  0  0  0  0  0  0  0  0  0
    1.4079   -0.5197    0.3824 C   0  0  0  0  0  0  0  0  0  0  0  0
    0.1720   -1.3377    0.3602 C   0  0  0  0  0  0  0  0  0  0  0  0
   -0.8682   -1.0067    1.2187 O   0  0  0  0  0  0  0  0  0  0  0  0
   -1.0011   -0.8246   -0.2024 C   0  0  0  0  0  0  0  0  0  0  0  0
   -1.1050    0.6141   -0.5603 C   0  0  0  0  0  0  0  0  0  0  0  0
    2.2509    1.3892    0.1812 H   0  0  0  0  0  0  0  0  0  0  0  0
    2.3734   -1.0033    0.5795 H   0  0  0  0  0  0  0  0  0  0  0  0
    0.3416   -2.4531    0.3177 H   0  0  0  0  0  0  0  0  0  0  0  0
   -1.7343   -1.4812   -0.7116 H   0  0  0  0  0  0  0  0  0  0  0  0
   -1.1941    0.7912   -1.6463 H   0  0  0  0  0  0  0  0  0  0  0  0
   -2.0549    1.0056   -0.0932 H   0  0  0  0  0  0  0  0  0  0  0  0
  1  2  2  0
  2  3  1  0
  3  4  2  0
  4  5  1  0
  5  6  1  0
  6  7  1  0
  7  8  1  0
  8  2  1  0
  7  5  1  0
  3  9  1  0
  4 10  1  0
  5 11  1  0
  7 12  1  0
  8 13  1  0
  8 14  1  0
M  END
