
     RDKit          3D

 17 18  0  0  0  0  0  0  0  0999 V2000
    1.7377    2.1766   -0.0056 O   0  0  0  0  0  0  0  0  0  0  0  0
    0.7524    1.4007   -0.1904 C   0  0  0  0  0  0  0  0  0  0  0  0
   -0.5107    1.8558    0.0887 O   0  0  0  0  0  0  0  0  0  0  0  0
   -1.5411    1.0086    0.4761 C   0  0  0  0  0  0  0  0  0  0  0  0
   -1.4455   -0.3905    0.0130 C   0  0  0  0  0  0  0  0  0  0  0  0
   -0.0842   -0.9329   -0.1749 C   0  0  0  0  0  0  0  0  0  0  0  0
    0.6947   -1.0885    0.9675 O   0  0  0  0  0  0  0  0  0  0  0  0
    1.8174   -0.8626    0.1538 C   0  0  0  0  0  0  0  0  0  0  0  0
    0.9274    0.0383   -0.6914 C   0  0  0  0  0  0  0  0  0  0  0  0
   -1.5731    1.0199    1.6023 H   0  0  0  0  0  0  0  0  0  0  0  0
   -2.5549    1.4030    0.1707 H   0  0  0  0  0  0  0  0  0  0  0  0
   -2.0195   -0.5197   -0.9215 H   0  0  0  0  0  0  0  0  0  0  0  0
   -1.9725   -1.0407    0.7719 H   0  0  0  0  0  0  0  0  0  0  0  0
   -0.0980   -1.8648   -0.7864 H   0  0  0  0  0  0  0  0  0  0  0  0
    2.0470   -1.7915   -0.4349 H   0  0  0  0  0  0  0  0  0  0  0  0
    2.6645   -0.3795    0.6363 H   0  0  0  0  0  0  0  0  0  0  0  0
    1.1584   -0.0322   -1.7721 H   0  0  0  0  0  0  0  0  0  0  0  0
  1  2  2  0
  2  3  1  0
  3  4  1  0
  4  5  1  0
  5  6  1  0
  6  7  1  0
  7  8  1  0
  8  9  1  0
  9  2  1  0
  9  6  1  0
  4 10  1  0
  4 11  1  0
  5 12  1  0
  5 13  1  0
  6 14  1  0
  8 15  1  0
  8 16  1  0
  9 17  1  0
M  END
