
     RDKit          3D

 15 17  0  0  0  0  0  0  0  0999 V2000
    1.5365   -2.1237   -1.1793 O   0  0  0  0  0  0  0  0  0  0  0  0
    0.9803   -1.0840   -0.8075 C   0  0  0  0  0  0  0  0  0  0  0  0
    0.7603    0.0781   -1.5222 O   0  0  0  0  0  0  0  0  0  0  0  0
    0.1143    1.0364   -0.6783 C   0  0  0  0  0  0  0  0  0  0  0  0
    0.7905    0.6506    0.6539 C   0  0  0  0  0  0  0  0  0  0  0  0
    0.4043   -0.8392    0.5327 C   0  0  0  0  0  0  0  0  0  0  0  0
   -1.0913   -0.6761    0.4387 C   0  0  0  0  0  0  0  0  0  0  0  0
   -1.6941   -0.6422   -0.8109 O   0  0  0  0  0  0  0  0  0  0  0  0
   -1.2820    0.5996   -0.3958 C   0  0  0  0  0  0  0  0  0  0  0  0
    0.2702    2.0566   -0.9559 H   0  0  0  0  0  0  0  0  0  0  0  0
    1.8569    0.8056    0.5215 H   0  0  0  0  0  0  0  0  0  0  0  0
    0.3208    1.1244    1.5056 H   0  0  0  0  0  0  0  0  0  0  0  0
    0.7712   -1.4439    1.3316 H   0  0  0  0  0  0  0  0  0  0  0  0
   -1.7492   -0.8497    1.2885 H   0  0  0  0  0  0  0  0  0  0  0  0
   -1.9888    1.3074    0.0773 H   0  0  0  0  0  0  0  0  0  0  0  0
  1  2  2  0
  2  3  1  0
  3  4  1  0
  4  5  1  0
  5  6  1  0
  6  7  1  0
  7  8  1  0
  8  9  1  0
  6  2  1  0
  9  7  1  0
  9  4  1  0
  4 10  1  0
  5 11  1  0
  5 12  1  0
  6 13  1  0
  7 14  1  0
  9 15  1  0
M  END
