
     RDKit          3D

 15 15  0  0  0  0  0  0  0  0999 V2000
   -3.2817    1.1926    0.5755 O   0  0  0  0  0  0  0  0  0  0  0  0
   -2.6109    0.2754    0.0329 C   0  0  0  0  0  0  0  0  0  0  0  0
   -2.0653   -1.0661    0.3445 C   0  0  0  0  0  0  0  0  0  0  0  0
   -1.1706   -0.7263   -0.8250 C   0  0  0  0  0  0  0  0  0  0  0  0
    0.1118   -0.1807   -0.4174 C   0  0  0  0  0  0  0  0  0  0  0  0
    1.1730    0.2890   -0.0844 C   0  0  0  0  0  0  0  0  0  0  0  0
    2.4335    0.8694    0.3173 C   0  0  0  0  0  0  0  0  0  0  0  0
    3.4804    0.3935   -0.4704 O   0  0  0  0  0  0  0  0  0  0  0  0
   -2.0871    0.2526   -1.2677 O   0  0  0  0  0  0  0  0  0  0  0  0
   -2.7353   -1.9181    0.1779 H   0  0  0  0  0  0  0  0  0  0  0  0
   -1.5349   -1.0915    1.3074 H   0  0  0  0  0  0  0  0  0  0  0  0
   -1.0603   -1.5133   -1.5914 H   0  0  0  0  0  0  0  0  0  0  0  0
    2.6590    0.7205    1.3980 H   0  0  0  0  0  0  0  0  0  0  0  0
    2.3786    1.9740    0.1601 H   0  0  0  0  0  0  0  0  0  0  0  0
    4.3097    0.5289    0.0803 H   0  0  0  0  0  0  0  0  0  0  0  0
  1  2  2  0
  2  3  1  0
  3  4  1  0
  4  5  1  0
  5  6  3  0
  6  7  1  0
  7  8  1  0
  4  9  1  0
  9  2  1  0
  3 10  1  0
  3 11  1  0
  4 12  1  0
  7 13  1  0
  7 14  1  0
  8 15  1  0
M  END
