
     RDKit          3D

 17 18  0  0  0  0  0  0  0  0999 V2000
   -0.4626   -2.1919    1.4409 O   0  0  0  0  0  0  0  0  0  0  0  0
   -0.5007   -1.2527    0.6714 C   0  0  0  0  0  0  0  0  0  0  0  0
   -1.5589   -0.2084    0.6587 C   0  0  0  0  0  0  0  0  0  0  0  0
   -1.0975    0.8503   -0.3109 C   0  0  0  0  0  0  0  0  0  0  0  0
    0.1963    0.3972   -0.9166 C   0  0  0  0  0  0  0  0  0  0  0  0
    1.3676    0.9000   -0.1029 C   0  0  0  0  0  0  0  0  0  0  0  0
    1.7890   -0.4966    0.1348 C   0  0  0  0  0  0  0  0  0  0  0  0
    2.7979   -1.0205    0.5727 O   0  0  0  0  0  0  0  0  0  0  0  0
    0.4872   -0.9858   -0.3759 C   0  0  0  0  0  0  0  0  0  0  0  0
   -2.4978   -0.6854    0.2851 H   0  0  0  0  0  0  0  0  0  0  0  0
   -1.7784    0.1954    1.6677 H   0  0  0  0  0  0  0  0  0  0  0  0
   -0.9149    1.7804    0.2901 H   0  0  0  0  0  0  0  0  0  0  0  0
   -1.8818    1.0818   -1.0295 H   0  0  0  0  0  0  0  0  0  0  0  0
    0.2943    0.4962   -2.0019 H   0  0  0  0  0  0  0  0  0  0  0  0
    1.0721    1.3953    0.8575 H   0  0  0  0  0  0  0  0  0  0  0  0
    2.0611    1.5070   -0.6891 H   0  0  0  0  0  0  0  0  0  0  0  0
    0.6272   -1.7625   -1.1522 H   0  0  0  0  0  0  0  0  0  0  0  0
  1  2  2  0
  2  3  1  0
  3  4  1  0
  4  5  1  0
  5  6  1  0
  6  7  1  0
  7  8  2  0
  7  9  1  0
  9  2  1  0
  9  5  1  0
  3 10  1  0
  3 11  1  0
  4 12  1  0
  4 13  1  0
  5 14  1  0
  6 15  1  0
  6 16  1  0
  9 17  1  0
M  END
