
     RDKit          3D

 17 18  0  0  0  0  0  0  0  0999 V2000
   -0.9985   -2.2788   -0.8735 O   0  0  0  0  0  0  0  0  0  0  0  0
   -0.8757   -1.1382   -0.4776 C   0  0  0  0  0  0  0  0  0  0  0  0
   -1.4164    0.1538   -0.9763 C   0  0  0  0  0  0  0  0  0  0  0  0
   -0.5901    0.8461    0.0836 C   0  0  0  0  0  0  0  0  0  0  0  0
    0.6304    1.4585   -0.4929 C   0  0  0  0  0  0  0  0  0  0  0  0
    1.7023    0.7239   -0.2147 C   0  0  0  0  0  0  0  0  0  0  0  0
    1.3233   -0.4795    0.5889 C   0  0  0  0  0  0  0  0  0  0  0  0
   -0.1667   -0.4773    0.6403 C   0  0  0  0  0  0  0  0  0  0  0  0
   -0.7339   -0.8206    1.8642 O   0  0  0  0  0  0  0  0  0  0  0  0
   -2.4801    0.3225   -0.7965 H   0  0  0  0  0  0  0  0  0  0  0  0
   -1.0973    0.3567   -2.0156 H   0  0  0  0  0  0  0  0  0  0  0  0
   -1.1393    1.5164    0.7630 H   0  0  0  0  0  0  0  0  0  0  0  0
    0.6242    2.3939   -1.0686 H   0  0  0  0  0  0  0  0  0  0  0  0
    2.6939    1.0158   -0.5565 H   0  0  0  0  0  0  0  0  0  0  0  0
    1.6375   -1.3954    0.0113 H   0  0  0  0  0  0  0  0  0  0  0  0
    1.8008   -0.4115    1.5638 H   0  0  0  0  0  0  0  0  0  0  0  0
   -0.9143   -1.7862    1.9571 H   0  0  0  0  0  0  0  0  0  0  0  0
  1  2  2  0
  2  3  1  0
  3  4  1  0
  4  5  1  0
  5  6  2  0
  6  7  1  0
  7  8  1  0
  8  9  1  0
  8  2  1  0
  8  4  1  0
  3 10  1  0
  3 11  1  0
  4 12  1  0
  5 13  1  0
  6 14  1  0
  7 15  1  0
  7 16  1  0
  9 17  1  0
M  END
