
     RDKit          3D

 19 19  0  0  0  0  0  0  0  0999 V2000
   -2.2069    1.5226   -1.1739 O   0  0  0  0  0  0  0  0  0  0  0  0
   -1.3818    0.7747   -0.6975 C   0  0  0  0  0  0  0  0  0  0  0  0
   -1.4696   -0.6969   -0.8189 C   0  0  0  0  0  0  0  0  0  0  0  0
   -1.1238   -1.2550    0.5295 C   0  0  0  0  0  0  0  0  0  0  0  0
    0.0336   -0.8528    1.0651 O   0  0  0  0  0  0  0  0  0  0  0  0
    0.5472    0.3548    0.8243 C   0  0  0  0  0  0  0  0  0  0  0  0
    1.9723    0.2417    0.2561 C   0  0  0  0  0  0  0  0  0  0  0  0
    1.9939   -0.4625   -0.9255 O   0  0  0  0  0  0  0  0  0  0  0  0
   -0.2427    1.3269    0.0324 C   0  0  0  0  0  0  0  0  0  0  0  0
   -2.4347   -1.0649   -1.1574 H   0  0  0  0  0  0  0  0  0  0  0  0
   -0.7001   -1.0450   -1.5319 H   0  0  0  0  0  0  0  0  0  0  0  0
   -1.0970   -2.3733    0.3990 H   0  0  0  0  0  0  0  0  0  0  0  0
   -1.9881   -1.0934    1.2348 H   0  0  0  0  0  0  0  0  0  0  0  0
    0.7429    0.8527    1.8248 H   0  0  0  0  0  0  0  0  0  0  0  0
    2.6188   -0.2049    1.0532 H   0  0  0  0  0  0  0  0  0  0  0  0
    2.3994    1.2464    0.0556 H   0  0  0  0  0  0  0  0  0  0  0  0
    2.5373   -1.2901   -0.8843 H   0  0  0  0  0  0  0  0  0  0  0  0
   -0.6297    2.1951    0.6430 H   0  0  0  0  0  0  0  0  0  0  0  0
    0.4289    1.8240   -0.7284 H   0  0  0  0  0  0  0  0  0  0  0  0
  1  2  2  0
  2  3  1  0
  3  4  1  0
  4  5  1  0
  5  6  1  0
  6  7  1  0
  7  8  1  0
  6  9  1  0
  9  2  1  0
  3 10  1  0
  3 11  1  0
  4 12  1  0
  4 13  1  0
  6 14  1  0
  7 15  1  0
  7 16  1  0
  8 17  1  0
  9 18  1  0
  9 19  1  0
M  END
