
     RDKit          3D

 15 16  0  0  0  0  0  0  0  0999 V2000
    2.8957   -0.1508    0.3645 O   0  0  0  0  0  0  0  0  0  0  0  0
    1.6734   -0.0483    0.3035 C   0  0  0  0  0  0  0  0  0  0  0  0
    0.7842   -0.6088    1.2455 O   0  0  0  0  0  0  0  0  0  0  0  0
   -0.5768   -0.4967    0.7826 C   0  0  0  0  0  0  0  0  0  0  0  0
   -0.5370   -1.1011   -0.6293 C   0  0  0  0  0  0  0  0  0  0  0  0
    0.1832   -0.2562   -1.4514 O   0  0  0  0  0  0  0  0  0  0  0  0
    0.9315    0.6844   -0.7751 C   0  0  0  0  0  0  0  0  0  0  0  0
    0.1068    1.5984   -0.0813 O   0  0  0  0  0  0  0  0  0  0  0  0
   -0.9421    0.9599    0.5540 C   0  0  0  0  0  0  0  0  0  0  0  0
   -1.2755   -1.0222    1.4363 H   0  0  0  0  0  0  0  0  0  0  0  0
   -1.5976   -1.0784   -0.9846 H   0  0  0  0  0  0  0  0  0  0  0  0
   -0.1346   -2.1168   -0.5657 H   0  0  0  0  0  0  0  0  0  0  0  0
    1.5903    1.2056   -1.4614 H   0  0  0  0  0  0  0  0  0  0  0  0
   -1.3038    1.4606    1.4473 H   0  0  0  0  0  0  0  0  0  0  0  0
   -1.7978    0.9704   -0.1847 H   0  0  0  0  0  0  0  0  0  0  0  0
  1  2  2  0
  2  3  1  0
  3  4  1  0
  4  5  1  0
  5  6  1  0
  6  7  1  0
  7  8  1  0
  8  9  1  0
  7  2  1  0
  9  4  1  0
  4 10  1  0
  5 11  1  0
  5 12  1  0
  7 13  1  0
  9 14  1  0
  9 15  1  0
M  END
