
     RDKit          3D

 17 18  0  0  0  0  0  0  0  0999 V2000
   -0.2950    1.6138    1.7660 O   0  0  0  0  0  0  0  0  0  0  0  0
   -0.3478    0.8309    0.8426 C   0  0  0  0  0  0  0  0  0  0  0  0
   -1.4226   -0.1089    0.4260 C   0  0  0  0  0  0  0  0  0  0  0  0
   -1.9507    0.2793   -0.8149 O   0  0  0  0  0  0  0  0  0  0  0  0
   -0.5900   -1.3659    0.1323 C   0  0  0  0  0  0  0  0  0  0  0  0
    0.5726   -0.7638   -0.6225 C   0  0  0  0  0  0  0  0  0  0  0  0
    1.7786   -0.3658    0.1134 C   0  0  0  0  0  0  0  0  0  0  0  0
    0.7500    0.6379   -0.1450 C   0  0  0  0  0  0  0  0  0  0  0  0
    0.9176    1.6802   -1.0487 O   0  0  0  0  0  0  0  0  0  0  0  0
   -2.1824   -0.2826    1.1856 H   0  0  0  0  0  0  0  0  0  0  0  0
   -2.1871    1.2509   -0.8265 H   0  0  0  0  0  0  0  0  0  0  0  0
   -1.1958   -2.0304   -0.4912 H   0  0  0  0  0  0  0  0  0  0  0  0
   -0.2963   -1.8385    1.0737 H   0  0  0  0  0  0  0  0  0  0  0  0
    0.5781   -0.9139   -1.7363 H   0  0  0  0  0  0  0  0  0  0  0  0
    1.8518   -0.7406    1.1662 H   0  0  0  0  0  0  0  0  0  0  0  0
    2.7203   -0.3351   -0.4671 H   0  0  0  0  0  0  0  0  0  0  0  0
    1.2988    2.4524   -0.5538 H   0  0  0  0  0  0  0  0  0  0  0  0
  1  2  2  0
  2  3  1  0
  3  4  1  0
  3  5  1  0
  5  6  1  0
  6  7  1  0
  7  8  1  0
  8  9  1  0
  8  2  1  0
  8  6  1  0
  3 10  1  0
  4 11  1  0
  5 12  1  0
  5 13  1  0
  6 14  1  0
  7 15  1  0
  7 16  1  0
  9 17  1  0
M  END
