
     RDKit          3D

 17 17  0  0  0  0  0  0  0  0999 V2000
    2.9726   -0.3928    1.1709 O   0  0  0  0  0  0  0  0  0  0  0  0
    2.1950   -0.5277    0.2432 C   0  0  0  0  0  0  0  0  0  0  0  0
    0.7902   -0.1759    0.4230 C   0  0  0  0  0  0  0  0  0  0  0  0
   -0.1301   -1.1076   -0.3843 C   0  0  0  0  0  0  0  0  0  0  0  0
   -1.5227   -0.7290    0.0257 C   0  0  0  0  0  0  0  0  0  0  0  0
   -1.8930    0.5351   -0.1525 O   0  0  0  0  0  0  0  0  0  0  0  0
   -0.9762    1.5316   -0.1804 C   0  0  0  0  0  0  0  0  0  0  0  0
    0.4263    1.1571   -0.0960 C   0  0  0  0  0  0  0  0  0  0  0  0
    1.3101    1.8962   -0.4351 O   0  0  0  0  0  0  0  0  0  0  0  0
    2.5768   -0.9069   -0.6893 H   0  0  0  0  0  0  0  0  0  0  0  0
    0.4385   -0.2533    1.4696 H   0  0  0  0  0  0  0  0  0  0  0  0
    0.0895   -2.1386   -0.1355 H   0  0  0  0  0  0  0  0  0  0  0  0
   -0.0169   -0.8614   -1.4634 H   0  0  0  0  0  0  0  0  0  0  0  0
   -1.6379   -1.0102    1.1071 H   0  0  0  0  0  0  0  0  0  0  0  0
   -2.2180   -1.4146   -0.5243 H   0  0  0  0  0  0  0  0  0  0  0  0
   -1.2110    2.1830   -1.0736 H   0  0  0  0  0  0  0  0  0  0  0  0
   -1.1932    2.2152    0.6950 H   0  0  0  0  0  0  0  0  0  0  0  0
  1  2  2  0
  2  3  1  0
  3  4  1  0
  4  5  1  0
  5  6  1  0
  6  7  1  0
  7  8  1  0
  8  9  2  0
  8  3  1  0
  2 10  1  0
  3 11  1  0
  4 12  1  0
  4 13  1  0
  5 14  1  0
  5 15  1  0
  7 16  1  0
  7 17  1  0
M  END
