
     RDKit          3D

 17 18  0  0  0  0  0  0  0  0999 V2000
   -1.4999    2.0836   -0.0901 O   0  0  0  0  0  0  0  0  0  0  0  0
   -1.7038    1.0076   -0.6375 C   0  0  0  0  0  0  0  0  0  0  0  0
   -0.9941   -0.2284   -0.3333 C   0  0  0  0  0  0  0  0  0  0  0  0
   -0.8261   -0.4688    1.1891 C   0  0  0  0  0  0  0  0  0  0  0  0
   -1.3021   -1.6865    1.6248 O   0  0  0  0  0  0  0  0  0  0  0  0
    0.3117   -0.3195    0.2923 C   0  0  0  0  0  0  0  0  0  0  0  0
    1.3054    0.7527    0.4317 C   0  0  0  0  0  0  0  0  0  0  0  0
    2.2113   -0.3401   -0.0579 C   0  0  0  0  0  0  0  0  0  0  0  0
    1.2171   -1.3006    0.0144 O   0  0  0  0  0  0  0  0  0  0  0  0
   -2.4734    1.0098   -1.3976 H   0  0  0  0  0  0  0  0  0  0  0  0
   -1.3094   -1.1180   -0.9309 H   0  0  0  0  0  0  0  0  0  0  0  0
   -1.0462    0.3692    1.8696 H   0  0  0  0  0  0  0  0  0  0  0  0
   -2.2731   -1.7180    1.3818 H   0  0  0  0  0  0  0  0  0  0  0  0
    1.5371    1.0136    1.4998 H   0  0  0  0  0  0  0  0  0  0  0  0
    1.2142    1.6376   -0.2356 H   0  0  0  0  0  0  0  0  0  0  0  0
    2.5543   -0.1529   -1.0892 H   0  0  0  0  0  0  0  0  0  0  0  0
    3.0768   -0.5413    0.6016 H   0  0  0  0  0  0  0  0  0  0  0  0
  1  2  2  0
  2  3  1  0
  3  4  1  0
  4  5  1  0
  4  6  1  0
  6  7  1  0
  7  8  1  0
  8  9  1  0
  6  3  1  0
  9  6  1  0
  2 10  1  0
  3 11  1  0
  4 12  1  0
  5 13  1  0
  7 14  1  0
  7 15  1  0
  8 16  1  0
  8 17  1  0
M  END
