
     RDKit          3D

 17 17  0  0  0  0  0  0  0  0999 V2000
    2.5709   -1.0576    0.9099 O   0  0  0  0  0  0  0  0  0  0  0  0
    2.0195   -1.0756   -0.1732 C   0  0  0  0  0  0  0  0  0  0  0  0
    1.3405    0.0970   -0.7669 C   0  0  0  0  0  0  0  0  0  0  0  0
    0.0134    0.3892   -0.0532 C   0  0  0  0  0  0  0  0  0  0  0  0
   -0.9403   -0.7532   -0.1304 C   0  0  0  0  0  0  0  0  0  0  0  0
   -2.2290   -0.5621    0.5250 C   0  0  0  0  0  0  0  0  0  0  0  0
   -2.5481    0.4388    1.1145 O   0  0  0  0  0  0  0  0  0  0  0  0
   -0.3018    1.7725    0.1552 C   0  0  0  0  0  0  0  0  0  0  0  0
    0.2029    1.0080    1.2079 O   0  0  0  0  0  0  0  0  0  0  0  0
    2.0119   -1.9955   -0.7580 H   0  0  0  0  0  0  0  0  0  0  0  0
    2.0272    0.9711   -0.6008 H   0  0  0  0  0  0  0  0  0  0  0  0
    1.1832    0.0194   -1.8398 H   0  0  0  0  0  0  0  0  0  0  0  0
   -1.0659   -1.0224   -1.1965 H   0  0  0  0  0  0  0  0  0  0  0  0
   -0.4454   -1.6329    0.3524 H   0  0  0  0  0  0  0  0  0  0  0  0
   -2.9568   -1.3618    0.4882 H   0  0  0  0  0  0  0  0  0  0  0  0
   -1.2815    2.2213    0.3436 H   0  0  0  0  0  0  0  0  0  0  0  0
    0.3991    2.5439   -0.2848 H   0  0  0  0  0  0  0  0  0  0  0  0
  1  2  2  0
  2  3  1  0
  3  4  1  0
  4  5  1  0
  5  6  1  0
  6  7  2  0
  4  8  1  0
  8  9  1  0
  9  4  1  0
  2 10  1  0
  3 11  1  0
  3 12  1  0
  5 13  1  0
  5 14  1  0
  6 15  1  0
  8 16  1  0
  8 17  1  0
M  END
