
     RDKit          3D

 19 19  0  0  0  0  0  0  0  0999 V2000
    3.3128    1.1727    0.0010 O   0  0  0  0  0  0  0  0  0  0  0  0
    2.5950    0.6254    0.8045 C   0  0  0  0  0  0  0  0  0  0  0  0
    1.8515   -0.5892    0.4085 C   0  0  0  0  0  0  0  0  0  0  0  0
    0.3873   -0.2454    0.3767 C   0  0  0  0  0  0  0  0  0  0  0  0
   -0.0615    0.9552    0.6892 C   0  0  0  0  0  0  0  0  0  0  0  0
   -1.4750    1.3226    0.6710 C   0  0  0  0  0  0  0  0  0  0  0  0
   -2.3453    0.2638    0.5772 O   0  0  0  0  0  0  0  0  0  0  0  0
   -1.9553   -0.7284   -0.2923 C   0  0  0  0  0  0  0  0  0  0  0  0
   -0.5987   -1.2808   -0.0156 C   0  0  0  0  0  0  0  0  0  0  0  0
    2.4938    1.0209    1.8038 H   0  0  0  0  0  0  0  0  0  0  0  0
    2.1934   -0.9349   -0.5980 H   0  0  0  0  0  0  0  0  0  0  0  0
    2.0459   -1.3558    1.2088 H   0  0  0  0  0  0  0  0  0  0  0  0
    0.6595    1.7329    0.9858 H   0  0  0  0  0  0  0  0  0  0  0  0
   -1.6902    2.1362   -0.0627 H   0  0  0  0  0  0  0  0  0  0  0  0
   -1.6879    1.8158    1.6686 H   0  0  0  0  0  0  0  0  0  0  0  0
   -2.0719   -0.4442   -1.3789 H   0  0  0  0  0  0  0  0  0  0  0  0
   -2.7039   -1.5670   -0.1716 H   0  0  0  0  0  0  0  0  0  0  0  0
   -0.6839   -2.0857    0.7412 H   0  0  0  0  0  0  0  0  0  0  0  0
   -0.2656   -1.8142   -0.9520 H   0  0  0  0  0  0  0  0  0  0  0  0
  1  2  2  0
  2  3  1  0
  3  4  1  0
  4  5  2  0
  5  6  1  0
  6  7  1  0
  7  8  1  0
  8  9  1  0
  9  4  1  0
  2 10  1  0
  3 11  1  0
  3 12  1  0
  5 13  1  0
  6 14  1  0
  6 15  1  0
  8 16  1  0
  8 17  1  0
  9 18  1  0
  9 19  1  0
M  END
