
     RDKit          3D

 17 17  0  0  0  0  0  0  0  0999 V2000
    3.5568    0.0058    0.2389 O   0  0  0  0  0  0  0  0  0  0  0  0
    2.4768    0.3555   -0.2036 C   0  0  0  0  0  0  0  0  0  0  0  0
    1.3272   -0.5379   -0.0136 C   0  0  0  0  0  0  0  0  0  0  0  0
    0.7945   -0.8613   -1.3889 O   0  0  0  0  0  0  0  0  0  0  0  0
   -0.0078   -0.2835   -0.4183 C   0  0  0  0  0  0  0  0  0  0  0  0
   -0.5314    1.1153   -0.7088 C   0  0  0  0  0  0  0  0  0  0  0  0
   -1.3118    1.5242    0.3740 O   0  0  0  0  0  0  0  0  0  0  0  0
   -1.0898   -1.2226    0.0728 C   0  0  0  0  0  0  0  0  0  0  0  0
   -1.9086   -1.5948   -0.9871 O   0  0  0  0  0  0  0  0  0  0  0  0
    2.4220    1.3144   -0.7175 H   0  0  0  0  0  0  0  0  0  0  0  0
    1.5463   -1.4788    0.5305 H   0  0  0  0  0  0  0  0  0  0  0  0
   -1.1039    1.1588   -1.6483 H   0  0  0  0  0  0  0  0  0  0  0  0
    0.3285    1.8098   -0.8237 H   0  0  0  0  0  0  0  0  0  0  0  0
   -1.6024    2.4689    0.1972 H   0  0  0  0  0  0  0  0  0  0  0  0
   -1.7274   -0.7708    0.8532 H   0  0  0  0  0  0  0  0  0  0  0  0
   -0.6264   -2.1291    0.5345 H   0  0  0  0  0  0  0  0  0  0  0  0
   -2.5426   -0.8738   -1.1366 H   0  0  0  0  0  0  0  0  0  0  0  0
  1  2  2  0
  2  3  1  0
  3  4  1  0
  4  5  1  0
  5  6  1  0
  6  7  1  0
  5  8  1  0
  8  9  1  0
  5  3  1  0
  2 10  1  0
  3 11  1  0
  6 12  1  0
  6 13  1  0
  7 14  1  0
  8 15  1  0
  8 16  1  0
  9 17  1  0
M  END
