
     RDKit          3D

 19 20  0  0  0  0  0  0  0  0999 V2000
    2.1883    1.2728    0.8346 O   0  0  0  0  0  0  0  0  0  0  0  0
    2.3667    0.1723    0.3658 C   0  0  0  0  0  0  0  0  0  0  0  0
    1.3114   -0.5138   -0.4497 C   0  0  0  0  0  0  0  0  0  0  0  0
    0.4646    0.3911   -1.3716 C   0  0  0  0  0  0  0  0  0  0  0  0
    0.7424    1.7733   -1.2843 O   0  0  0  0  0  0  0  0  0  0  0  0
   -0.0885   -0.2247   -0.1846 C   0  0  0  0  0  0  0  0  0  0  0  0
   -0.6125    0.4847    0.9993 C   0  0  0  0  0  0  0  0  0  0  0  0
   -1.9248   -0.2879    0.8007 C   0  0  0  0  0  0  0  0  0  0  0  0
   -1.1806   -1.2275   -0.1573 C   0  0  0  0  0  0  0  0  0  0  0  0
    3.3310   -0.3249    0.5504 H   0  0  0  0  0  0  0  0  0  0  0  0
    1.5852   -1.5118   -0.8246 H   0  0  0  0  0  0  0  0  0  0  0  0
    0.3549    0.0089   -2.3908 H   0  0  0  0  0  0  0  0  0  0  0  0
   -0.0847    2.2820   -1.0445 H   0  0  0  0  0  0  0  0  0  0  0  0
   -0.7826    1.5644    0.8791 H   0  0  0  0  0  0  0  0  0  0  0  0
   -0.0821    0.1813    1.9303 H   0  0  0  0  0  0  0  0  0  0  0  0
   -2.7165    0.3067    0.3073 H   0  0  0  0  0  0  0  0  0  0  0  0
   -2.2461   -0.7727    1.7446 H   0  0  0  0  0  0  0  0  0  0  0  0
   -1.7119   -1.4155   -1.1062 H   0  0  0  0  0  0  0  0  0  0  0  0
   -0.9142   -2.1588    0.4015 H   0  0  0  0  0  0  0  0  0  0  0  0
  1  2  2  0
  2  3  1  0
  3  4  1  0
  4  5  1  0
  4  6  1  0
  6  7  1  0
  7  8  1  0
  8  9  1  0
  6  3  1  0
  9  6  1  0
  2 10  1  0
  3 11  1  0
  4 12  1  0
  5 13  1  0
  7 14  1  0
  7 15  1  0
  8 16  1  0
  8 17  1  0
  9 18  1  0
  9 19  1  0
M  END
