
     RDKit          3D

 15 15  0  0  0  0  0  0  0  0999 V2000
    2.3903    2.0581   -0.0615 O   0  0  0  0  0  0  0  0  0  0  0  0
    3.1981    1.0923   -0.1922 C   0  0  0  0  0  0  0  0  0  0  0  0
    2.6476   -0.2639   -0.2412 C   0  0  0  0  0  0  0  0  0  0  0  0
    3.4287   -1.2401   -0.3707 O   0  0  0  0  0  0  0  0  0  0  0  0
    1.2356   -0.4998   -0.1444 C   0  0  0  0  0  0  0  0  0  0  0  0
    0.0487   -0.6910   -0.0469 C   0  0  0  0  0  0  0  0  0  0  0  0
   -1.4062   -0.9398    0.0933 C   0  0  0  0  0  0  0  0  0  0  0  0
   -2.1405   -0.0377    0.9808 C   0  0  0  0  0  0  0  0  0  0  0  0
   -2.2688    0.0974   -0.5186 C   0  0  0  0  0  0  0  0  0  0  0  0
    4.2522    1.2890   -0.2630 H   0  0  0  0  0  0  0  0  0  0  0  0
   -1.7173   -2.0059   -0.0056 H   0  0  0  0  0  0  0  0  0  0  0  0
   -3.0186   -0.4194    1.5516 H   0  0  0  0  0  0  0  0  0  0  0  0
   -1.5888    0.7828    1.5206 H   0  0  0  0  0  0  0  0  0  0  0  0
   -1.8544    1.0345   -0.9444 H   0  0  0  0  0  0  0  0  0  0  0  0
   -3.2065   -0.2565   -0.9866 H   0  0  0  0  0  0  0  0  0  0  0  0
  1  2  2  0
  2  3  1  0
  3  4  2  0
  3  5  1  0
  5  6  3  0
  6  7  1  0
  7  8  1  0
  8  9  1  0
  9  7  1  0
  2 10  1  0
  7 11  1  0
  8 12  1  0
  8 13  1  0
  9 14  1  0
  9 15  1  0
M  END
