
     RDKit          3D

 17 18  0  0  0  0  0  0  0  0999 V2000
   -1.4565    1.2666    0.7903 O   0  0  0  0  0  0  0  0  0  0  0  0
   -2.1548    0.4660    0.2141 C   0  0  0  0  0  0  0  0  0  0  0  0
   -1.5351   -0.6898   -0.4545 C   0  0  0  0  0  0  0  0  0  0  0  0
   -0.0479   -0.7276   -0.3292 C   0  0  0  0  0  0  0  0  0  0  0  0
    0.4966   -0.7949    1.0462 C   0  0  0  0  0  0  0  0  0  0  0  0
    0.4148   -1.5214    2.0184 O   0  0  0  0  0  0  0  0  0  0  0  0
    1.2433    0.4526    0.7878 C   0  0  0  0  0  0  0  0  0  0  0  0
    2.1434    0.5239   -0.4405 C   0  0  0  0  0  0  0  0  0  0  0  0
    0.6734    0.5772   -0.5666 C   0  0  0  0  0  0  0  0  0  0  0  0
   -3.2202    0.5870    0.1836 H   0  0  0  0  0  0  0  0  0  0  0  0
   -1.7978   -0.7025   -1.5269 H   0  0  0  0  0  0  0  0  0  0  0  0
   -1.9439   -1.6225    0.0203 H   0  0  0  0  0  0  0  0  0  0  0  0
    0.3957   -1.5219   -0.9619 H   0  0  0  0  0  0  0  0  0  0  0  0
    1.2680    1.2662    1.5179 H   0  0  0  0  0  0  0  0  0  0  0  0
    2.6062   -0.4381   -0.8003 H   0  0  0  0  0  0  0  0  0  0  0  0
    2.7822    1.4158   -0.4491 H   0  0  0  0  0  0  0  0  0  0  0  0
    0.1326    1.4633   -0.9158 H   0  0  0  0  0  0  0  0  0  0  0  0
  1  2  2  0
  2  3  1  0
  3  4  1  0
  4  5  1  0
  5  6  2  0
  5  7  1  0
  7  8  1  0
  8  9  1  0
  9  4  1  0
  9  7  1  0
  2 10  1  0
  3 11  1  0
  3 12  1  0
  4 13  1  0
  7 14  1  0
  8 15  1  0
  8 16  1  0
  9 17  1  0
M  END
