
     RDKit          3D

 17 18  0  0  0  0  0  0  0  0999 V2000
    2.8601   -1.3014    0.3032 O   0  0  0  0  0  0  0  0  0  0  0  0
    1.7994   -1.2198   -0.2920 C   0  0  0  0  0  0  0  0  0  0  0  0
    0.8228   -0.2049    0.1165 C   0  0  0  0  0  0  0  0  0  0  0  0
   -0.4972   -0.1028   -0.6246 C   0  0  0  0  0  0  0  0  0  0  0  0
   -1.4147    0.9618   -0.1264 C   0  0  0  0  0  0  0  0  0  0  0  0
   -2.4887    0.0686   -0.3480 O   0  0  0  0  0  0  0  0  0  0  0  0
   -1.5829   -0.9581   -0.0051 C   0  0  0  0  0  0  0  0  0  0  0  0
    1.3581    1.1559    0.5669 C   0  0  0  0  0  0  0  0  0  0  0  0
    0.8888    0.1799    1.4333 O   0  0  0  0  0  0  0  0  0  0  0  0
    1.5541   -1.8779   -1.1184 H   0  0  0  0  0  0  0  0  0  0  0  0
   -0.4281   -0.1360   -1.7139 H   0  0  0  0  0  0  0  0  0  0  0  0
   -1.3260    1.1276    0.9655 H   0  0  0  0  0  0  0  0  0  0  0  0
   -1.5376    1.8604   -0.7441 H   0  0  0  0  0  0  0  0  0  0  0  0
   -1.7469   -1.9058   -0.5351 H   0  0  0  0  0  0  0  0  0  0  0  0
   -1.4201   -1.0337    1.0932 H   0  0  0  0  0  0  0  0  0  0  0  0
    0.7167    2.0393    0.4649 H   0  0  0  0  0  0  0  0  0  0  0  0
    2.4423    1.3469    0.4790 H   0  0  0  0  0  0  0  0  0  0  0  0
  1  2  2  0
  2  3  1  0
  3  4  1  0
  4  5  1  0
  5  6  1  0
  6  7  1  0
  3  8  1  0
  8  9  1  0
  9  3  1  0
  7  4  1  0
  2 10  1  0
  4 11  1  0
  5 12  1  0
  5 13  1  0
  7 14  1  0
  7 15  1  0
  8 16  1  0
  8 17  1  0
M  END
