
     RDKit          3D

 19 19  0  0  0  0  0  0  0  0999 V2000
    2.9420    0.7841    0.4331 O   0  0  0  0  0  0  0  0  0  0  0  0
    2.3532    0.0856   -0.3705 C   0  0  0  0  0  0  0  0  0  0  0  0
    1.3125   -0.8996    0.0189 C   0  0  0  0  0  0  0  0  0  0  0  0
    0.0862   -0.1371    0.4085 C   0  0  0  0  0  0  0  0  0  0  0  0
    0.2816    0.7275    1.4676 O   0  0  0  0  0  0  0  0  0  0  0  0
   -0.3466    0.6421   -0.8472 C   0  0  0  0  0  0  0  0  0  0  0  0
   -1.7765    0.9413   -0.4361 C   0  0  0  0  0  0  0  0  0  0  0  0
   -2.1529    0.0133    0.4971 O   0  0  0  0  0  0  0  0  0  0  0  0
   -1.1431   -0.9623    0.5903 C   0  0  0  0  0  0  0  0  0  0  0  0
    2.6075    0.1967   -1.4145 H   0  0  0  0  0  0  0  0  0  0  0  0
    1.6854   -1.5637    0.8257 H   0  0  0  0  0  0  0  0  0  0  0  0
    1.0713   -1.5284   -0.8441 H   0  0  0  0  0  0  0  0  0  0  0  0
   -0.2067    0.4435    2.2811 H   0  0  0  0  0  0  0  0  0  0  0  0
   -0.3255   -0.1037   -1.6656 H   0  0  0  0  0  0  0  0  0  0  0  0
    0.2605    1.5284   -1.0160 H   0  0  0  0  0  0  0  0  0  0  0  0
   -1.7416    1.9633    0.0397 H   0  0  0  0  0  0  0  0  0  0  0  0
   -2.4147    1.0093   -1.3243 H   0  0  0  0  0  0  0  0  0  0  0  0
   -1.2419   -1.4409    1.5724 H   0  0  0  0  0  0  0  0  0  0  0  0
   -1.2507   -1.6994   -0.2160 H   0  0  0  0  0  0  0  0  0  0  0  0
  1  2  2  0
  2  3  1  0
  3  4  1  0
  4  5  1  0
  4  6  1  0
  6  7  1  0
  7  8  1  0
  8  9  1  0
  9  4  1  0
  2 10  1  0
  3 11  1  0
  3 12  1  0
  5 13  1  0
  6 14  1  0
  6 15  1  0
  7 16  1  0
  7 17  1  0
  9 18  1  0
  9 19  1  0
M  END
