
     RDKit          3D

 19 18  0  0  0  0  0  0  0  0999 V2000
    4.0642    0.9769   -0.5320 O   0  0  0  0  0  0  0  0  0  0  0  0
    3.9667   -0.1631   -0.1843 C   0  0  0  0  0  0  0  0  0  0  0  0
    2.9761   -1.0706   -0.7925 C   0  0  0  0  0  0  0  0  0  0  0  0
    1.6095   -0.5086   -0.6832 C   0  0  0  0  0  0  0  0  0  0  0  0
    0.4900   -0.0699   -0.5935 C   0  0  0  0  0  0  0  0  0  0  0  0
   -0.8647    0.4728   -0.4899 C   0  0  0  0  0  0  0  0  0  0  0  0
   -1.5542   -0.2913    0.6317 C   0  0  0  0  0  0  0  0  0  0  0  0
   -2.9589    0.3033    0.7042 C   0  0  0  0  0  0  0  0  0  0  0  0
   -2.9018    1.6650    0.9811 O   0  0  0  0  0  0  0  0  0  0  0  0
    4.6317   -0.5394    0.6111 H   0  0  0  0  0  0  0  0  0  0  0  0
    3.2482   -1.1797   -1.8719 H   0  0  0  0  0  0  0  0  0  0  0  0
    2.9838   -2.0503   -0.3157 H   0  0  0  0  0  0  0  0  0  0  0  0
   -0.8656    1.5376   -0.1338 H   0  0  0  0  0  0  0  0  0  0  0  0
   -1.4685    0.3467   -1.3911 H   0  0  0  0  0  0  0  0  0  0  0  0
   -0.9936   -0.1134    1.5576 H   0  0  0  0  0  0  0  0  0  0  0  0
   -1.6038   -1.3557    0.3907 H   0  0  0  0  0  0  0  0  0  0  0  0
   -3.4919    0.0869   -0.2369 H   0  0  0  0  0  0  0  0  0  0  0  0
   -3.5250   -0.1613    1.5598 H   0  0  0  0  0  0  0  0  0  0  0  0
   -3.7424    2.1141    0.7885 H   0  0  0  0  0  0  0  0  0  0  0  0
  1  2  2  0
  2  3  1  0
  3  4  1  0
  4  5  3  0
  5  6  1  0
  6  7  1  0
  7  8  1  0
  8  9  1  0
  2 10  1  0
  3 11  1  0
  3 12  1  0
  6 13  1  0
  6 14  1  0
  7 15  1  0
  7 16  1  0
  8 17  1  0
  8 18  1  0
  9 19  1  0
M  END
