
     RDKit          3D

 21 21  0  0  0  0  0  0  0  0999 V2000
    2.8875   -1.5432   -0.3067 O   0  0  0  0  0  0  0  0  0  0  0  0
    2.3929   -0.4409   -0.2555 C   0  0  0  0  0  0  0  0  0  0  0  0
    1.0039   -0.2908    0.3212 C   0  0  0  0  0  0  0  0  0  0  0  0
    0.1141   -1.2152   -0.4043 C   0  0  0  0  0  0  0  0  0  0  0  0
   -1.3425   -0.9350   -0.3195 C   0  0  0  0  0  0  0  0  0  0  0  0
   -1.7264    0.0073    0.7898 C   0  0  0  0  0  0  0  0  0  0  0  0
   -1.7797    1.2928    0.2241 O   0  0  0  0  0  0  0  0  0  0  0  0
   -0.5580    1.5249   -0.4472 C   0  0  0  0  0  0  0  0  0  0  0  0
    0.6263    1.1293    0.3664 C   0  0  0  0  0  0  0  0  0  0  0  0
    2.9610    0.3920   -0.6226 H   0  0  0  0  0  0  0  0  0  0  0  0
    1.1053   -0.6620    1.3839 H   0  0  0  0  0  0  0  0  0  0  0  0
    0.4569   -1.3084   -1.4728 H   0  0  0  0  0  0  0  0  0  0  0  0
    0.2780   -2.2521    0.0162 H   0  0  0  0  0  0  0  0  0  0  0  0
   -1.6909   -0.5634   -1.3282 H   0  0  0  0  0  0  0  0  0  0  0  0
   -1.9382   -1.8853   -0.1782 H   0  0  0  0  0  0  0  0  0  0  0  0
   -0.9505   -0.0521    1.5776 H   0  0  0  0  0  0  0  0  0  0  0  0
   -2.6902   -0.2387    1.2328 H   0  0  0  0  0  0  0  0  0  0  0  0
   -0.5561    1.1272   -1.4633 H   0  0  0  0  0  0  0  0  0  0  0  0
   -0.5178    2.6495   -0.5572 H   0  0  0  0  0  0  0  0  0  0  0  0
    1.4889    1.7735    0.0236 H   0  0  0  0  0  0  0  0  0  0  0  0
    0.4354    1.4905    1.4198 H   0  0  0  0  0  0  0  0  0  0  0  0
  1  2  2  0
  2  3  1  0
  3  4  1  0
  4  5  1  0
  5  6  1  0
  6  7  1  0
  7  8  1  0
  8  9  1  0
  9  3  1  0
  2 10  1  0
  3 11  1  0
  4 12  1  0
  4 13  1  0
  5 14  1  0
  5 15  1  0
  6 16  1  0
  6 17  1  0
  8 18  1  0
  8 19  1  0
  9 20  1  0
  9 21  1  0
M  END
