
     RDKit          3D

  9  9  0  0  0  0  0  0  0  0999 V2000
    1.5089   -0.7122    1.0836 O   0  0  0  0  0  0  0  0  0  0  0  0
    1.3119   -0.2760   -0.0448 C   0  0  0  0  0  0  0  0  0  0  0  0
    0.0893    0.5138   -0.3702 C   0  0  0  0  0  0  0  0  0  0  0  0
   -1.1579   -0.0802    0.2714 C   0  0  0  0  0  0  0  0  0  0  0  0
   -0.6071    1.1144    0.6718 O   0  0  0  0  0  0  0  0  0  0  0  0
    2.0064   -0.4370   -0.8620 H   0  0  0  0  0  0  0  0  0  0  0  0
   -0.0271    0.8741   -1.3939 H   0  0  0  0  0  0  0  0  0  0  0  0
   -1.0652   -0.8936    1.0042 H   0  0  0  0  0  0  0  0  0  0  0  0
   -2.0593   -0.1033   -0.3600 H   0  0  0  0  0  0  0  0  0  0  0  0
  1  2  2  0
  2  3  1  0
  3  4  1  0
  4  5  1  0
  5  3  1  0
  2  6  1  0
  3  7  1  0
  4  8  1  0
  4  9  1  0
M  END
