
     RDKit          3D

 15 15  0  0  0  0  0  0  0  0999 V2000
    2.6026   -0.2796    0.3699 O   0  0  0  0  0  0  0  0  0  0  0  0
    1.4830   -0.4960    0.7564 C   0  0  0  0  0  0  0  0  0  0  0  0
    0.3512    0.2226    0.1419 C   0  0  0  0  0  0  0  0  0  0  0  0
    0.6392    1.6263   -0.1785 C   0  0  0  0  0  0  0  0  0  0  0  0
    0.9766    2.3754    0.7132 O   0  0  0  0  0  0  0  0  0  0  0  0
   -0.2090   -0.5922   -1.0047 C   0  0  0  0  0  0  0  0  0  0  0  0
   -1.4815   -0.7271   -0.2145 C   0  0  0  0  0  0  0  0  0  0  0  0
   -0.9379    0.1185    0.8719 C   0  0  0  0  0  0  0  0  0  0  0  0
   -1.3136    0.5715    1.9251 O   0  0  0  0  0  0  0  0  0  0  0  0
    1.3150   -1.2040    1.5387 H   0  0  0  0  0  0  0  0  0  0  0  0
    0.5597    2.0081   -1.1784 H   0  0  0  0  0  0  0  0  0  0  0  0
   -0.3007   -0.0015   -1.9464 H   0  0  0  0  0  0  0  0  0  0  0  0
    0.3034   -1.5597   -1.1903 H   0  0  0  0  0  0  0  0  0  0  0  0
   -2.3233   -0.2979   -0.7792 H   0  0  0  0  0  0  0  0  0  0  0  0
   -1.6648   -1.7644    0.1748 H   0  0  0  0  0  0  0  0  0  0  0  0
  1  2  2  0
  2  3  1  0
  3  4  1  0
  4  5  2  0
  3  6  1  0
  6  7  1  0
  7  8  1  0
  8  9  2  0
  8  3  1  0
  2 10  1  0
  4 11  1  0
  6 12  1  0
  6 13  1  0
  7 14  1  0
  7 15  1  0
M  END
