
     RDKit          3D

 16 16  0  0  0  0  0  0  0  0999 V2000
   -1.9938   -0.6542    1.6474 O   0  0  0  0  0  0  0  0  0  0  0  0
   -1.9490   -0.2993    0.4892 C   0  0  0  0  0  0  0  0  0  0  0  0
   -0.6987    0.0635   -0.1754 C   0  0  0  0  0  0  0  0  0  0  0  0
   -0.8814    0.4339   -1.4833 O   0  0  0  0  0  0  0  0  0  0  0  0
    0.0768    1.1085    0.5406 C   0  0  0  0  0  0  0  0  0  0  0  0
    1.3758    0.8547    0.4705 C   0  0  0  0  0  0  0  0  0  0  0  0
    1.5947   -0.3803   -0.2964 C   0  0  0  0  0  0  0  0  0  0  0  0
    0.2733   -1.1010   -0.1230 C   0  0  0  0  0  0  0  0  0  0  0  0
   -2.8640   -0.2464   -0.0813 H   0  0  0  0  0  0  0  0  0  0  0  0
   -1.3156    1.3029   -1.6134 H   0  0  0  0  0  0  0  0  0  0  0  0
   -0.3129    1.9794    1.0649 H   0  0  0  0  0  0  0  0  0  0  0  0
    2.1592    1.4534    0.9044 H   0  0  0  0  0  0  0  0  0  0  0  0
    1.7842   -0.1634   -1.3726 H   0  0  0  0  0  0  0  0  0  0  0  0
    2.4529   -0.9817    0.0520 H   0  0  0  0  0  0  0  0  0  0  0  0
    0.2446   -1.5567    0.8953 H   0  0  0  0  0  0  0  0  0  0  0  0
    0.0540   -1.8133   -0.9187 H   0  0  0  0  0  0  0  0  0  0  0  0
  1  2  2  0
  2  3  1  0
  3  4  1  0
  3  5  1  0
  5  6  2  0
  6  7  1  0
  7  8  1  0
  8  3  1  0
  2  9  1  0
  4 10  1  0
  5 11  1  0
  6 12  1  0
  7 13  1  0
  7 14  1  0
  8 15  1  0
  8 16  1  0
M  END
