
     RDKit          3D

 17 20  0  0  0  0  0  0  0  0999 V2000
    2.8843   -0.8926   -0.8514 O   0  0  0  0  0  0  0  0  0  0  0  0
    2.2709    0.0549   -0.3967 C   0  0  0  0  0  0  0  0  0  0  0  0
    0.8313    0.0632   -0.2028 C   0  0  0  0  0  0  0  0  0  0  0  0
    0.0239    1.3291   -0.2595 C   0  0  0  0  0  0  0  0  0  0  0  0
   -1.3486    0.8482    0.1677 C   0  0  0  0  0  0  0  0  0  0  0  0
   -1.1280   -0.2575    1.0715 C   0  0  0  0  0  0  0  0  0  0  0  0
   -1.4591   -0.4992   -0.3740 C   0  0  0  0  0  0  0  0  0  0  0  0
   -0.0879   -0.9877   -0.6152 C   0  0  0  0  0  0  0  0  0  0  0  0
    0.2324   -0.7672    0.8352 C   0  0  0  0  0  0  0  0  0  0  0  0
    2.8494    0.9321   -0.1276 H   0  0  0  0  0  0  0  0  0  0  0  0
    0.4187    2.0647    0.4444 H   0  0  0  0  0  0  0  0  0  0  0  0
    0.0125    1.7207   -1.2925 H   0  0  0  0  0  0  0  0  0  0  0  0
   -2.2078    1.5062    0.1370 H   0  0  0  0  0  0  0  0  0  0  0  0
   -1.7815   -0.5903    1.8759 H   0  0  0  0  0  0  0  0  0  0  0  0
   -2.3635   -1.0272   -0.6255 H   0  0  0  0  0  0  0  0  0  0  0  0
    0.1630   -1.9023   -1.1328 H   0  0  0  0  0  0  0  0  0  0  0  0
    0.6900   -1.5949    1.3465 H   0  0  0  0  0  0  0  0  0  0  0  0
  1  2  2  0
  2  3  1  0
  3  4  1  0
  4  5  1  0
  5  6  1  0
  6  7  1  0
  7  8  1  0
  8  9  1  0
  8  3  1  0
  9  3  1  0
  7  5  1  0
  9  6  1  0
  2 10  1  0
  4 11  1  0
  4 12  1  0
  5 13  1  0
  6 14  1  0
  7 15  1  0
  8 16  1  0
  9 17  1  0
M  END
