
     RDKit          3D

 17 18  0  0  0  0  0  0  0  0999 V2000
   -0.8668    2.5231    0.1573 O   0  0  0  0  0  0  0  0  0  0  0  0
   -1.0058    1.3498   -0.1287 C   0  0  0  0  0  0  0  0  0  0  0  0
   -0.3636    0.2267    0.6777 C   0  0  0  0  0  0  0  0  0  0  0  0
    0.9481    0.6591    1.1069 C   0  0  0  0  0  0  0  0  0  0  0  0
    1.7514    0.5208    0.0725 C   0  0  0  0  0  0  0  0  0  0  0  0
    0.8972   -0.0363   -1.0695 C   0  0  0  0  0  0  0  0  0  0  0  0
    0.1503   -0.9913   -0.1779 C   0  0  0  0  0  0  0  0  0  0  0  0
   -1.0369   -0.9873    0.5530 C   0  0  0  0  0  0  0  0  0  0  0  0
   -2.2495   -1.0715   -0.1643 O   0  0  0  0  0  0  0  0  0  0  0  0
   -1.6151    1.1403   -0.9943 H   0  0  0  0  0  0  0  0  0  0  0  0
    1.2271    1.0219    2.0697 H   0  0  0  0  0  0  0  0  0  0  0  0
    2.7932    0.7366   -0.0106 H   0  0  0  0  0  0  0  0  0  0  0  0
    1.5050   -0.5926   -1.7782 H   0  0  0  0  0  0  0  0  0  0  0  0
    0.3014    0.7376   -1.5422 H   0  0  0  0  0  0  0  0  0  0  0  0
    0.9518   -1.6437    0.2997 H   0  0  0  0  0  0  0  0  0  0  0  0
   -1.1544   -1.6001    1.4938 H   0  0  0  0  0  0  0  0  0  0  0  0
   -2.2333   -1.9930   -0.5650 H   0  0  0  0  0  0  0  0  0  0  0  0
  1  2  2  0
  2  3  1  0
  3  4  1  0
  4  5  2  0
  5  6  1  0
  6  7  1  0
  7  8  1  0
  8  9  1  0
  7  3  1  0
  8  3  1  0
  2 10  1  0
  4 11  1  0
  5 12  1  0
  6 13  1  0
  6 14  1  0
  7 15  1  0
  8 16  1  0
  9 17  1  0
M  END
