
     RDKit          3D

 18 19  0  0  0  0  0  0  0  0999 V2000
    2.4057   -1.4454   -0.7946 O   0  0  0  0  0  0  0  0  0  0  0  0
    1.7835   -0.7386   -0.0193 C   0  0  0  0  0  0  0  0  0  0  0  0
    0.9149    0.3209   -0.5356 C   0  0  0  0  0  0  0  0  0  0  0  0
    0.4443    1.2616    0.5947 C   0  0  0  0  0  0  0  0  0  0  0  0
   -0.9477    0.7130    0.9780 C   0  0  0  0  0  0  0  0  0  0  0  0
   -0.8705   -0.6342    0.3775 C   0  0  0  0  0  0  0  0  0  0  0  0
   -1.2474   -1.1990   -0.8478 C   0  0  0  0  0  0  0  0  0  0  0  0
   -0.4062   -0.0911   -1.0364 C   0  0  0  0  0  0  0  0  0  0  0  0
    1.9353   -0.9682    1.0425 H   0  0  0  0  0  0  0  0  0  0  0  0
    1.4624    0.9542   -1.2777 H   0  0  0  0  0  0  0  0  0  0  0  0
    0.3131    2.2790    0.1699 H   0  0  0  0  0  0  0  0  0  0  0  0
    1.1303    1.2485    1.4394 H   0  0  0  0  0  0  0  0  0  0  0  0
   -0.9549    0.6629    2.0862 H   0  0  0  0  0  0  0  0  0  0  0  0
   -1.7237    1.3608    0.5536 H   0  0  0  0  0  0  0  0  0  0  0  0
   -0.0839   -1.2251    0.9459 H   0  0  0  0  0  0  0  0  0  0  0  0
   -0.8738   -2.2097   -1.1493 H   0  0  0  0  0  0  0  0  0  0  0  0
   -2.3376   -1.1391   -1.1418 H   0  0  0  0  0  0  0  0  0  0  0  0
   -0.9438    0.8496   -1.3850 H   0  0  0  0  0  0  0  0  0  0  0  0
  1  2  2  0
  2  3  1  0
  3  4  1  0
  4  5  1  0
  5  6  1  0
  6  7  1  0
  7  8  1  0
  8  3  1  0
  8  6  1  0
  2  9  1  0
  3 10  1  0
  4 11  1  0
  4 12  1  0
  5 13  1  0
  5 14  1  0
  6 15  1  0
  7 16  1  0
  7 17  1  0
  8 18  1  0
M  END
