
     RDKit          3D

 15 15  0  0  0  0  0  0  0  0999 V2000
    2.7788    0.5995   -0.2225 O   0  0  0  0  0  0  0  0  0  0  0  0
    1.7977    0.5378    0.4768 C   0  0  0  0  0  0  0  0  0  0  0  0
    0.7768   -0.4551    0.1874 C   0  0  0  0  0  0  0  0  0  0  0  0
   -0.4797   -0.4468    0.9964 C   0  0  0  0  0  0  0  0  0  0  0  0
   -1.2682   -0.3021   -0.2715 C   0  0  0  0  0  0  0  0  0  0  0  0
   -2.1387    0.7842   -0.2939 O   0  0  0  0  0  0  0  0  0  0  0  0
   -0.0186   -0.0365   -1.0523 C   0  0  0  0  0  0  0  0  0  0  0  0
    1.7019    1.2183    1.2971 H   0  0  0  0  0  0  0  0  0  0  0  0
    1.2334   -1.4703    0.0889 H   0  0  0  0  0  0  0  0  0  0  0  0
   -0.6555   -1.4323    1.4750 H   0  0  0  0  0  0  0  0  0  0  0  0
   -0.6023    0.3673    1.7245 H   0  0  0  0  0  0  0  0  0  0  0  0
   -1.7731   -1.2123   -0.6293 H   0  0  0  0  0  0  0  0  0  0  0  0
   -1.6637    1.6220   -0.4902 H   0  0  0  0  0  0  0  0  0  0  0  0
    0.1602    0.9865   -1.3877 H   0  0  0  0  0  0  0  0  0  0  0  0
    0.1511   -0.7602   -1.8986 H   0  0  0  0  0  0  0  0  0  0  0  0
  1  2  2  0
  2  3  1  0
  3  4  1  0
  4  5  1  0
  5  6  1  0
  5  7  1  0
  7  3  1  0
  2  8  1  0
  3  9  1  0
  4 10  1  0
  4 11  1  0
  5 12  1  0
  6 13  1  0
  7 14  1  0
  7 15  1  0
M  END
