
     RDKit          3D

 19 19  0  0  0  0  0  0  0  0999 V2000
   -2.8177   -1.3224   -0.5369 O   0  0  0  0  0  0  0  0  0  0  0  0
   -1.6605   -1.5479   -0.2836 C   0  0  0  0  0  0  0  0  0  0  0  0
   -0.6224   -0.6104   -0.7500 C   0  0  0  0  0  0  0  0  0  0  0  0
    0.7639   -1.0188   -0.3176 C   0  0  0  0  0  0  0  0  0  0  0  0
    1.3645    0.1972    0.3388 C   0  0  0  0  0  0  0  0  0  0  0  0
    2.6380    0.4870   -0.0803 O   0  0  0  0  0  0  0  0  0  0  0  0
    0.4684    1.3539   -0.1072 C   0  0  0  0  0  0  0  0  0  0  0  0
   -0.8839    0.7184   -0.0285 C   0  0  0  0  0  0  0  0  0  0  0  0
   -1.8750    1.3900   -0.6855 O   0  0  0  0  0  0  0  0  0  0  0  0
   -1.3718   -2.4153    0.2732 H   0  0  0  0  0  0  0  0  0  0  0  0
   -0.6776   -0.4203   -1.8407 H   0  0  0  0  0  0  0  0  0  0  0  0
    1.3589   -1.3447   -1.2104 H   0  0  0  0  0  0  0  0  0  0  0  0
    0.7594   -1.8878    0.3785 H   0  0  0  0  0  0  0  0  0  0  0  0
    1.2540    0.1248    1.4328 H   0  0  0  0  0  0  0  0  0  0  0  0
    3.2606   -0.2593   -0.1066 H   0  0  0  0  0  0  0  0  0  0  0  0
    0.5966    2.1952    0.5820 H   0  0  0  0  0  0  0  0  0  0  0  0
    0.7447    1.6038   -1.1494 H   0  0  0  0  0  0  0  0  0  0  0  0
   -1.1640    0.5477    1.0185 H   0  0  0  0  0  0  0  0  0  0  0  0
   -2.1359    2.2088   -0.2042 H   0  0  0  0  0  0  0  0  0  0  0  0
  1  2  2  0
  2  3  1  0
  3  4  1  0
  4  5  1  0
  5  6  1  0
  5  7  1  0
  7  8  1  0
  8  9  1  0
  8  3  1  0
  2 10  1  0
  3 11  1  0
  4 12  1  0
  4 13  1  0
  5 14  1  0
  6 15  1  0
  7 16  1  0
  7 17  1  0
  8 18  1  0
  9 19  1  0
M  END
