
     RDKit          3D

 17 19  0  0  0  0  0  0  0  0999 V2000
   -2.9681   -0.8256   -1.3471 O   0  0  0  0  0  0  0  0  0  0  0  0
   -2.2957   -0.1177   -0.6163 C   0  0  0  0  0  0  0  0  0  0  0  0
   -0.8789   -0.2540   -0.3781 C   0  0  0  0  0  0  0  0  0  0  0  0
   -0.3232   -1.6290    0.1652 C   0  0  0  0  0  0  0  0  0  0  0  0
    0.9489   -0.8825    0.2147 C   0  0  0  0  0  0  0  0  0  0  0  0
    1.9380   -0.0159    0.2137 C   0  0  0  0  0  0  0  0  0  0  0  0
    1.3404    1.3514   -0.0726 C   0  0  0  0  0  0  0  0  0  0  0  0
   -0.0067    0.9047   -0.7066 C   0  0  0  0  0  0  0  0  0  0  0  0
   -0.1667    0.2047    0.6348 C   0  0  0  0  0  0  0  0  0  0  0  0
   -2.8427    0.6929   -0.1022 H   0  0  0  0  0  0  0  0  0  0  0  0
   -0.4123   -2.4153   -0.5930 H   0  0  0  0  0  0  0  0  0  0  0  0
   -0.7610   -1.8024    1.1450 H   0  0  0  0  0  0  0  0  0  0  0  0
    2.9913   -0.2065    0.3787 H   0  0  0  0  0  0  0  0  0  0  0  0
    1.1942    1.9475    0.8355 H   0  0  0  0  0  0  0  0  0  0  0  0
    1.9252    1.9385   -0.7558 H   0  0  0  0  0  0  0  0  0  0  0  0
    0.3966    0.4580   -1.6324 H   0  0  0  0  0  0  0  0  0  0  0  0
   -0.0793    0.6511    1.5624 H   0  0  0  0  0  0  0  0  0  0  0  0
  1  2  2  0
  2  3  1  0
  3  4  1  0
  4  5  1  0
  5  6  2  0
  6  7  1  0
  7  8  1  0
  8  9  1  0
  8  3  1  0
  9  3  1  0
  9  5  1  0
  2 10  1  0
  4 11  1  0
  4 12  1  0
  6 13  1  0
  7 14  1  0
  7 15  1  0
  8 16  1  0
  9 17  1  0
M  END
