
     RDKit          3D

 17 18  0  0  0  0  0  0  0  0999 V2000
    1.9715   -1.8907   -0.1967 O   0  0  0  0  0  0  0  0  0  0  0  0
    1.8784   -1.2016    0.8701 C   0  0  0  0  0  0  0  0  0  0  0  0
    1.0323   -0.0360    0.8277 C   0  0  0  0  0  0  0  0  0  0  0  0
    0.9811    0.6262    1.8946 O   0  0  0  0  0  0  0  0  0  0  0  0
    0.3184    0.2754   -0.4236 C   0  0  0  0  0  0  0  0  0  0  0  0
   -0.6261   -0.8195   -0.8152 C   0  0  0  0  0  0  0  0  0  0  0  0
   -1.3898   -0.2498    0.3999 C   0  0  0  0  0  0  0  0  0  0  0  0
   -1.0724    1.0261   -0.3150 C   0  0  0  0  0  0  0  0  0  0  0  0
    0.1518    1.6897   -0.6132 C   0  0  0  0  0  0  0  0  0  0  0  0
    2.4277   -1.5043    1.7651 H   0  0  0  0  0  0  0  0  0  0  0  0
   -1.2532   -0.6162   -1.7106 H   0  0  0  0  0  0  0  0  0  0  0  0
   -0.2736   -1.8293   -0.6873 H   0  0  0  0  0  0  0  0  0  0  0  0
   -2.4641   -0.4932    0.4094 H   0  0  0  0  0  0  0  0  0  0  0  0
   -0.9681   -0.4710    1.3613 H   0  0  0  0  0  0  0  0  0  0  0  0
   -1.6899    0.9827   -1.2799 H   0  0  0  0  0  0  0  0  0  0  0  0
    0.4956    2.4497    0.1457 H   0  0  0  0  0  0  0  0  0  0  0  0
    0.4804    2.0618   -1.6321 H   0  0  0  0  0  0  0  0  0  0  0  0
  1  2  2  0
  2  3  1  0
  3  4  2  0
  3  5  1  0
  5  6  1  0
  6  7  1  0
  7  8  1  0
  8  9  1  0
  8  5  1  0
  9  5  1  0
  2 10  1  0
  6 11  1  0
  6 12  1  0
  7 13  1  0
  7 14  1  0
  8 15  1  0
  9 16  1  0
  9 17  1  0
M  END
