
     RDKit          3D

 19 19  0  0  0  0  0  0  0  0999 V2000
   -0.7007    2.4695    0.9937 O   0  0  0  0  0  0  0  0  0  0  0  0
    0.1904    2.0896    0.2517 C   0  0  0  0  0  0  0  0  0  0  0  0
    0.2951    0.6845   -0.2382 C   0  0  0  0  0  0  0  0  0  0  0  0
    1.7749    0.3148   -0.1304 C   0  0  0  0  0  0  0  0  0  0  0  0
    1.7438   -1.1586    0.1097 C   0  0  0  0  0  0  0  0  0  0  0  0
    0.5510   -1.5130    0.5625 C   0  0  0  0  0  0  0  0  0  0  0  0
   -0.3410   -0.3049    0.6715 C   0  0  0  0  0  0  0  0  0  0  0  0
   -1.7109   -0.7454    0.2243 C   0  0  0  0  0  0  0  0  0  0  0  0
   -2.6095    0.3035    0.1347 O   0  0  0  0  0  0  0  0  0  0  0  0
    0.9301    2.8349   -0.0501 H   0  0  0  0  0  0  0  0  0  0  0  0
   -0.0218    0.6173   -1.2830 H   0  0  0  0  0  0  0  0  0  0  0  0
    2.3036    0.5827   -1.0532 H   0  0  0  0  0  0  0  0  0  0  0  0
    2.2291    0.7915    0.7643 H   0  0  0  0  0  0  0  0  0  0  0  0
    2.6214   -1.7815   -0.0857 H   0  0  0  0  0  0  0  0  0  0  0  0
    0.2935   -2.5489    0.8099 H   0  0  0  0  0  0  0  0  0  0  0  0
   -0.3981    0.0650    1.7026 H   0  0  0  0  0  0  0  0  0  0  0  0
   -2.1362   -1.4759    0.9423 H   0  0  0  0  0  0  0  0  0  0  0  0
   -1.6917   -1.2582   -0.7583 H   0  0  0  0  0  0  0  0  0  0  0  0
   -3.3230    0.0330   -0.4923 H   0  0  0  0  0  0  0  0  0  0  0  0
  1  2  2  0
  2  3  1  0
  3  4  1  0
  4  5  1  0
  5  6  2  0
  6  7  1  0
  7  8  1  0
  8  9  1  0
  7  3  1  0
  2 10  1  0
  3 11  1  0
  4 12  1  0
  4 13  1  0
  5 14  1  0
  6 15  1  0
  7 16  1  0
  8 17  1  0
  8 18  1  0
  9 19  1  0
M  END
