
     RDKit          3D

 17 17  0  0  0  0  0  0  0  0999 V2000
   -2.3329    1.2966   -0.7534 O   0  0  0  0  0  0  0  0  0  0  0  0
   -2.2317    0.2770   -0.0943 C   0  0  0  0  0  0  0  0  0  0  0  0
   -1.0014   -0.5770   -0.1493 C   0  0  0  0  0  0  0  0  0  0  0  0
   -1.1399   -1.6780    0.6937 O   0  0  0  0  0  0  0  0  0  0  0  0
    0.2339    0.2026    0.2274 C   0  0  0  0  0  0  0  0  0  0  0  0
    0.2618    0.7070    1.5259 O   0  0  0  0  0  0  0  0  0  0  0  0
    1.0139    0.9423   -0.7891 C   0  0  0  0  0  0  0  0  0  0  0  0
    1.5547   -0.3648   -0.3337 C   0  0  0  0  0  0  0  0  0  0  0  0
    2.6290   -0.4228    0.5460 O   0  0  0  0  0  0  0  0  0  0  0  0
   -3.0575   -0.0155    0.5478 H   0  0  0  0  0  0  0  0  0  0  0  0
   -0.9085   -0.9734   -1.1819 H   0  0  0  0  0  0  0  0  0  0  0  0
   -1.8461   -1.5503    1.3802 H   0  0  0  0  0  0  0  0  0  0  0  0
   -0.0687    1.6387    1.4777 H   0  0  0  0  0  0  0  0  0  0  0  0
    1.4975    1.8934   -0.4734 H   0  0  0  0  0  0  0  0  0  0  0  0
    0.6747    0.9947   -1.8519 H   0  0  0  0  0  0  0  0  0  0  0  0
    1.4637   -1.2223   -1.0327 H   0  0  0  0  0  0  0  0  0  0  0  0
    3.2575   -1.1483    0.2611 H   0  0  0  0  0  0  0  0  0  0  0  0
  1  2  2  0
  2  3  1  0
  3  4  1  0
  3  5  1  0
  5  6  1  0
  5  7  1  0
  7  8  1  0
  8  9  1  0
  8  5  1  0
  2 10  1  0
  3 11  1  0
  4 12  1  0
  6 13  1  0
  7 14  1  0
  7 15  1  0
  8 16  1  0
  9 17  1  0
M  END
