
     RDKit          3D

 18 18  0  0  0  0  0  0  0  0999 V2000
    2.0722    1.4766   -1.1121 O   0  0  0  0  0  0  0  0  0  0  0  0
    2.5087    0.4318   -0.6762 C   0  0  0  0  0  0  0  0  0  0  0  0
    1.7118   -0.4455    0.1762 C   0  0  0  0  0  0  0  0  0  0  0  0
    0.3320    0.0674    0.4424 C   0  0  0  0  0  0  0  0  0  0  0  0
   -0.4913    0.2508   -0.8157 C   0  0  0  0  0  0  0  0  0  0  0  0
   -1.8600    0.4233   -0.1656 C   0  0  0  0  0  0  0  0  0  0  0  0
   -1.7430   -0.6345    0.9132 C   0  0  0  0  0  0  0  0  0  0  0  0
   -0.4156   -0.8370    1.1642 O   0  0  0  0  0  0  0  0  0  0  0  0
    3.5195    0.1554   -0.9353 H   0  0  0  0  0  0  0  0  0  0  0  0
    2.1835   -0.6564    1.1654 H   0  0  0  0  0  0  0  0  0  0  0  0
    1.6013   -1.4260   -0.3635 H   0  0  0  0  0  0  0  0  0  0  0  0
    0.3624    1.0142    1.0486 H   0  0  0  0  0  0  0  0  0  0  0  0
   -0.2039    1.0930   -1.4285 H   0  0  0  0  0  0  0  0  0  0  0  0
   -0.5018   -0.7225   -1.3374 H   0  0  0  0  0  0  0  0  0  0  0  0
   -1.9069    1.4091    0.3660 H   0  0  0  0  0  0  0  0  0  0  0  0
   -2.6826    0.2641   -0.8552 H   0  0  0  0  0  0  0  0  0  0  0  0
   -2.2342   -0.2981    1.8567 H   0  0  0  0  0  0  0  0  0  0  0  0
   -2.2521   -1.5656    0.5569 H   0  0  0  0  0  0  0  0  0  0  0  0
  1  2  2  0
  2  3  1  0
  3  4  1  0
  4  5  1  0
  5  6  1  0
  6  7  1  0
  7  8  1  0
  8  4  1  0
  2  9  1  0
  3 10  1  0
  3 11  1  0
  4 12  1  0
  5 13  1  0
  5 14  1  0
  6 15  1  0
  6 16  1  0
  7 17  1  0
  7 18  1  0
M  END
