
     RDKit          3D

 19 20  0  0  0  0  0  0  0  0999 V2000
    2.7960    1.2875    0.9321 O   0  0  0  0  0  0  0  0  0  0  0  0
    2.7335    0.2607    0.2845 C   0  0  0  0  0  0  0  0  0  0  0  0
    1.4714   -0.4114   -0.0220 C   0  0  0  0  0  0  0  0  0  0  0  0
    0.4252   -0.2518    1.0962 C   0  0  0  0  0  0  0  0  0  0  0  0
   -0.5490   -0.0730    0.0069 C   0  0  0  0  0  0  0  0  0  0  0  0
    0.5084    0.3903   -0.9028 C   0  0  0  0  0  0  0  0  0  0  0  0
   -1.5498   -1.0909   -0.2468 C   0  0  0  0  0  0  0  0  0  0  0  0
   -1.9116    0.3797    0.0691 C   0  0  0  0  0  0  0  0  0  0  0  0
   -2.3904    1.0839   -1.0368 O   0  0  0  0  0  0  0  0  0  0  0  0
    3.6472   -0.1838   -0.0864 H   0  0  0  0  0  0  0  0  0  0  0  0
    1.5617   -1.4273   -0.3998 H   0  0  0  0  0  0  0  0  0  0  0  0
    0.3787   -1.2354    1.6433 H   0  0  0  0  0  0  0  0  0  0  0  0
    0.6659    0.6172    1.7276 H   0  0  0  0  0  0  0  0  0  0  0  0
    0.7447    1.4813   -0.7318 H   0  0  0  0  0  0  0  0  0  0  0  0
    0.4674    0.0722   -1.9442 H   0  0  0  0  0  0  0  0  0  0  0  0
   -1.7515   -1.8142    0.5708 H   0  0  0  0  0  0  0  0  0  0  0  0
   -1.8277   -1.4703   -1.2462 H   0  0  0  0  0  0  0  0  0  0  0  0
   -2.4611    0.5374    1.0248 H   0  0  0  0  0  0  0  0  0  0  0  0
   -2.9589    1.8479   -0.7781 H   0  0  0  0  0  0  0  0  0  0  0  0
  1  2  2  0
  2  3  1  0
  3  4  1  0
  4  5  1  0
  5  6  1  0
  5  7  1  0
  7  8  1  0
  8  9  1  0
  6  3  1  0
  8  5  1  0
  2 10  1  0
  3 11  1  0
  4 12  1  0
  4 13  1  0
  6 14  1  0
  6 15  1  0
  7 16  1  0
  7 17  1  0
  8 18  1  0
  9 19  1  0
M  END
