
     RDKit          3D

 19 19  0  0  0  0  0  0  0  0999 V2000
   -2.1064    2.0887   -0.5622 O   0  0  0  0  0  0  0  0  0  0  0  0
   -1.6168    1.1671    0.0836 C   0  0  0  0  0  0  0  0  0  0  0  0
   -1.1557   -0.0778   -0.6045 C   0  0  0  0  0  0  0  0  0  0  0  0
   -1.0580   -1.2002    0.3667 C   0  0  0  0  0  0  0  0  0  0  0  0
    0.1587   -1.7340    0.5791 O   0  0  0  0  0  0  0  0  0  0  0  0
    1.2250   -0.9217    0.7349 C   0  0  0  0  0  0  0  0  0  0  0  0
    1.1126    0.4256    0.0681 C   0  0  0  0  0  0  0  0  0  0  0  0
    2.3485    0.9451   -0.2551 O   0  0  0  0  0  0  0  0  0  0  0  0
    0.2285    0.2243   -1.1581 C   0  0  0  0  0  0  0  0  0  0  0  0
   -1.5398    1.3032    1.1518 H   0  0  0  0  0  0  0  0  0  0  0  0
   -1.8615   -0.2743   -1.4488 H   0  0  0  0  0  0  0  0  0  0  0  0
   -1.7271   -2.0260   -0.0225 H   0  0  0  0  0  0  0  0  0  0  0  0
   -1.5600   -0.8929    1.3295 H   0  0  0  0  0  0  0  0  0  0  0  0
    1.5301   -0.7334    1.7879 H   0  0  0  0  0  0  0  0  0  0  0  0
    2.1198   -1.4243    0.2600 H   0  0  0  0  0  0  0  0  0  0  0  0
    0.5333    1.0804    0.7559 H   0  0  0  0  0  0  0  0  0  0  0  0
    2.5855    1.6128    0.4613 H   0  0  0  0  0  0  0  0  0  0  0  0
    0.5675   -0.6547   -1.7084 H   0  0  0  0  0  0  0  0  0  0  0  0
    0.2158    1.0921   -1.8192 H   0  0  0  0  0  0  0  0  0  0  0  0
  1  2  2  0
  2  3  1  0
  3  4  1  0
  4  5  1  0
  5  6  1  0
  6  7  1  0
  7  8  1  0
  7  9  1  0
  9  3  1  0
  2 10  1  0
  3 11  1  0
  4 12  1  0
  4 13  1  0
  6 14  1  0
  6 15  1  0
  7 16  1  0
  8 17  1  0
  9 18  1  0
  9 19  1  0
M  END
