
     RDKit          3D

 15 15  0  0  0  0  0  0  0  0999 V2000
    0.3282    1.5579    1.6943 O   0  0  0  0  0  0  0  0  0  0  0  0
    1.1733    1.0862    0.9722 C   0  0  0  0  0  0  0  0  0  0  0  0
    0.8481    0.0927   -0.0494 C   0  0  0  0  0  0  0  0  0  0  0  0
    2.0007   -0.3897   -0.8607 C   0  0  0  0  0  0  0  0  0  0  0  0
    1.8009   -1.2142   -1.7268 O   0  0  0  0  0  0  0  0  0  0  0  0
   -0.1425    0.6853   -0.9922 O   0  0  0  0  0  0  0  0  0  0  0  0
   -0.4061   -0.5502   -0.2339 C   0  0  0  0  0  0  0  0  0  0  0  0
   -1.6470   -0.4083    0.5697 C   0  0  0  0  0  0  0  0  0  0  0  0
   -2.7658   -0.1517   -0.2566 O   0  0  0  0  0  0  0  0  0  0  0  0
    2.1844    1.4193    1.1008 H   0  0  0  0  0  0  0  0  0  0  0  0
    3.0180   -0.0530   -0.7313 H   0  0  0  0  0  0  0  0  0  0  0  0
   -0.4364   -1.4401   -0.9244 H   0  0  0  0  0  0  0  0  0  0  0  0
   -1.9032   -1.3726    1.0865 H   0  0  0  0  0  0  0  0  0  0  0  0
   -1.6214    0.3489    1.3757 H   0  0  0  0  0  0  0  0  0  0  0  0
   -2.4311    0.3896   -1.0238 H   0  0  0  0  0  0  0  0  0  0  0  0
  1  2  2  0
  2  3  1  0
  3  4  1  0
  4  5  2  0
  3  6  1  0
  6  7  1  0
  7  8  1  0
  8  9  1  0
  7  3  1  0
  2 10  1  0
  4 11  1  0
  7 12  1  0
  8 13  1  0
  8 14  1  0
  9 15  1  0
M  END
