
     RDKit          3D

 17 19  0  0  0  0  0  0  0  0999 V2000
    3.0474    0.9002    0.4354 O   0  0  0  0  0  0  0  0  0  0  0  0
    2.4538    0.3738   -0.4734 C   0  0  0  0  0  0  0  0  0  0  0  0
    1.0280    0.0976   -0.3985 C   0  0  0  0  0  0  0  0  0  0  0  0
    0.3406   -0.5021   -1.4286 O   0  0  0  0  0  0  0  0  0  0  0  0
   -0.5143   -1.1304   -0.5475 C   0  0  0  0  0  0  0  0  0  0  0  0
   -1.7275   -0.2724   -0.2926 C   0  0  0  0  0  0  0  0  0  0  0  0
   -1.2287    0.9398    0.4490 C   0  0  0  0  0  0  0  0  0  0  0  0
    0.2231    0.6608    0.7674 C   0  0  0  0  0  0  0  0  0  0  0  0
    0.3889   -0.7673    0.5824 C   0  0  0  0  0  0  0  0  0  0  0  0
    3.0011    0.1056   -1.3574 H   0  0  0  0  0  0  0  0  0  0  0  0
   -0.7468   -2.1761   -0.7141 H   0  0  0  0  0  0  0  0  0  0  0  0
   -2.2575   -0.0087   -1.2396 H   0  0  0  0  0  0  0  0  0  0  0  0
   -2.4436   -0.8764    0.3172 H   0  0  0  0  0  0  0  0  0  0  0  0
   -1.3448    1.8240   -0.2181 H   0  0  0  0  0  0  0  0  0  0  0  0
   -1.8347    1.0738    1.3669 H   0  0  0  0  0  0  0  0  0  0  0  0
    0.7573    1.2315    1.5134 H   0  0  0  0  0  0  0  0  0  0  0  0
    0.8579   -1.4739    1.2381 H   0  0  0  0  0  0  0  0  0  0  0  0
  1  2  2  0
  2  3  1  0
  3  4  1  0
  4  5  1  0
  5  6  1  0
  6  7  1  0
  7  8  1  0
  8  9  1  0
  8  3  1  0
  9  3  1  0
  9  5  1  0
  2 10  1  0
  5 11  1  0
  6 12  1  0
  6 13  1  0
  7 14  1  0
  7 15  1  0
  8 16  1  0
  9 17  1  0
M  END
