
     RDKit          3D

 13 12  0  0  0  0  0  0  0  0999 V2000
   -1.5642    1.2892   -1.0546 O   0  0  0  0  0  0  0  0  0  0  0  0
   -1.9323    0.8149    0.0762 C   0  0  0  0  0  0  0  0  0  0  0  0
   -1.1424   -0.2613    0.6287 C   0  0  0  0  0  0  0  0  0  0  0  0
   -1.4765   -0.7435    1.7331 O   0  0  0  0  0  0  0  0  0  0  0  0
    0.0242   -0.7845   -0.0737 C   0  0  0  0  0  0  0  0  0  0  0  0
    1.3390   -0.2498    0.4419 C   0  0  0  0  0  0  0  0  0  0  0  0
    1.4758    1.1090    0.3508 O   0  0  0  0  0  0  0  0  0  0  0  0
   -2.7872    1.2005    0.5876 H   0  0  0  0  0  0  0  0  0  0  0  0
   -0.0897   -0.5476   -1.1509 H   0  0  0  0  0  0  0  0  0  0  0  0
    0.1113   -1.9076    0.0509 H   0  0  0  0  0  0  0  0  0  0  0  0
    1.5519   -0.6152    1.4653 H   0  0  0  0  0  0  0  0  0  0  0  0
    2.1356   -0.7009   -0.2018 H   0  0  0  0  0  0  0  0  0  0  0  0
    2.3545    1.3969   -0.0400 H   0  0  0  0  0  0  0  0  0  0  0  0
  1  2  2  0
  2  3  1  0
  3  4  2  0
  3  5  1  0
  5  6  1  0
  6  7  1  0
  2  8  1  0
  5  9  1  0
  5 10  1  0
  6 11  1  0
  6 12  1  0
  7 13  1  0
M  END
