
     RDKit          3D

 17 18  0  0  0  0  0  0  0  0999 V2000
    3.6468   -0.5058   -0.3340 O   0  0  0  0  0  0  0  0  0  0  0  0
    2.9590    0.4948   -0.2444 C   0  0  0  0  0  0  0  0  0  0  0  0
    1.5041    0.4814    0.0390 C   0  0  0  0  0  0  0  0  0  0  0  0
    1.3213   -0.2242    1.3596 O   0  0  0  0  0  0  0  0  0  0  0  0
    0.7708   -0.6930    0.0588 C   0  0  0  0  0  0  0  0  0  0  0  0
   -0.7327   -0.7029    0.1805 C   0  0  0  0  0  0  0  0  0  0  0  0
   -1.4001    0.6459    0.0524 C   0  0  0  0  0  0  0  0  0  0  0  0
   -2.4797   -0.2802   -0.5185 C   0  0  0  0  0  0  0  0  0  0  0  0
   -1.4240   -1.1123   -0.9342 O   0  0  0  0  0  0  0  0  0  0  0  0
    3.4473    1.4461   -0.3813 H   0  0  0  0  0  0  0  0  0  0  0  0
    1.0397    1.4738    0.0856 H   0  0  0  0  0  0  0  0  0  0  0  0
    1.2095   -1.6924   -0.1218 H   0  0  0  0  0  0  0  0  0  0  0  0
   -1.0356   -1.1902    1.1209 H   0  0  0  0  0  0  0  0  0  0  0  0
   -1.6831    1.1351    1.0033 H   0  0  0  0  0  0  0  0  0  0  0  0
   -1.0338    1.3000   -0.7447 H   0  0  0  0  0  0  0  0  0  0  0  0
   -3.0779    0.1445   -1.3227 H   0  0  0  0  0  0  0  0  0  0  0  0
   -3.0316   -0.7207    0.3339 H   0  0  0  0  0  0  0  0  0  0  0  0
  1  2  2  0
  2  3  1  0
  3  4  1  0
  4  5  1  0
  5  6  1  0
  6  7  1  0
  7  8  1  0
  8  9  1  0
  5  3  1  0
  9  6  1  0
  2 10  1  0
  3 11  1  0
  5 12  1  0
  6 13  1  0
  7 14  1  0
  7 15  1  0
  8 16  1  0
  8 17  1  0
M  END
