
     RDKit          3D

 17 18  0  0  0  0  0  0  0  0999 V2000
   -2.6039    1.0586   -1.0099 O   0  0  0  0  0  0  0  0  0  0  0  0
   -2.2454    0.3792   -0.0790 C   0  0  0  0  0  0  0  0  0  0  0  0
   -0.9208    0.5895    0.5355 C   0  0  0  0  0  0  0  0  0  0  0  0
    0.1319   -0.0418   -0.3653 C   0  0  0  0  0  0  0  0  0  0  0  0
   -0.0516   -1.5130   -0.5692 C   0  0  0  0  0  0  0  0  0  0  0  0
    1.2961   -1.7836   -0.3997 O   0  0  0  0  0  0  0  0  0  0  0  0
    1.3849   -0.6012    0.3390 C   0  0  0  0  0  0  0  0  0  0  0  0
    1.4274    0.6316   -0.4698 C   0  0  0  0  0  0  0  0  0  0  0  0
    1.5560    1.8760    0.1427 O   0  0  0  0  0  0  0  0  0  0  0  0
   -2.8984   -0.3784    0.2969 H   0  0  0  0  0  0  0  0  0  0  0  0
   -0.8492    0.0433    1.5088 H   0  0  0  0  0  0  0  0  0  0  0  0
   -0.6847    1.6685    0.7038 H   0  0  0  0  0  0  0  0  0  0  0  0
   -0.4677   -1.7463   -1.5466 H   0  0  0  0  0  0  0  0  0  0  0  0
   -0.6512   -2.0286    0.2352 H   0  0  0  0  0  0  0  0  0  0  0  0
    1.3281   -0.6205    1.4242 H   0  0  0  0  0  0  0  0  0  0  0  0
    2.0122    0.5639   -1.4330 H   0  0  0  0  0  0  0  0  0  0  0  0
    2.2361    1.9028    0.8469 H   0  0  0  0  0  0  0  0  0  0  0  0
  1  2  2  0
  2  3  1  0
  3  4  1  0
  4  5  1  0
  5  6  1  0
  6  7  1  0
  7  8  1  0
  8  9  1  0
  7  4  1  0
  8  4  1  0
  2 10  1  0
  3 11  1  0
  3 12  1  0
  5 13  1  0
  5 14  1  0
  7 15  1  0
  8 16  1  0
  9 17  1  0
M  END
