
     RDKit          3D

 17 17  0  0  0  0  0  0  0  0999 V2000
   -3.3500   -1.6855   -0.2169 O   0  0  0  0  0  0  0  0  0  0  0  0
   -2.5969   -0.9137   -0.7876 C   0  0  0  0  0  0  0  0  0  0  0  0
   -2.3804    0.4092   -0.1390 C   0  0  0  0  0  0  0  0  0  0  0  0
   -3.0833    0.5489    1.0287 O   0  0  0  0  0  0  0  0  0  0  0  0
   -0.9216    0.5578    0.0686 C   0  0  0  0  0  0  0  0  0  0  0  0
    0.2622    0.6853    0.2175 C   0  0  0  0  0  0  0  0  0  0  0  0
    1.7240    0.8202    0.4117 C   0  0  0  0  0  0  0  0  0  0  0  0
    2.6025   -0.1674   -0.3818 C   0  0  0  0  0  0  0  0  0  0  0  0
    2.4502   -0.2440    1.0940 C   0  0  0  0  0  0  0  0  0  0  0  0
   -2.1200   -1.1859   -1.7109 H   0  0  0  0  0  0  0  0  0  0  0  0
   -2.6661    1.2105   -0.8360 H   0  0  0  0  0  0  0  0  0  0  0  0
   -2.9531   -0.2051    1.6578 H   0  0  0  0  0  0  0  0  0  0  0  0
    2.1164    1.8585    0.5259 H   0  0  0  0  0  0  0  0  0  0  0  0
    2.0436   -0.8467   -1.0586 H   0  0  0  0  0  0  0  0  0  0  0  0
    3.4863    0.2865   -0.8602 H   0  0  0  0  0  0  0  0  0  0  0  0
    3.3831    0.0377    1.6633 H   0  0  0  0  0  0  0  0  0  0  0  0
    2.0031   -1.1664    1.4712 H   0  0  0  0  0  0  0  0  0  0  0  0
  1  2  2  0
  2  3  1  0
  3  4  1  0
  3  5  1  0
  5  6  3  0
  6  7  1  0
  7  8  1  0
  8  9  1  0
  9  7  1  0
  2 10  1  0
  3 11  1  0
  4 12  1  0
  7 13  1  0
  8 14  1  0
  8 15  1  0
  9 16  1  0
  9 17  1  0
M  END
