
     RDKit          3D

 17 19  0  0  0  0  0  0  0  0999 V2000
    1.7391    1.9381    0.1213 O   0  0  0  0  0  0  0  0  0  0  0  0
    2.3729    0.9756    0.4744 C   0  0  0  0  0  0  0  0  0  0  0  0
    1.7556   -0.3634    0.4137 C   0  0  0  0  0  0  0  0  0  0  0  0
    0.9015   -0.6857   -0.7504 C   0  0  0  0  0  0  0  0  0  0  0  0
    0.1351    0.3860   -1.2299 O   0  0  0  0  0  0  0  0  0  0  0  0
   -0.7255    0.1449   -0.2196 C   0  0  0  0  0  0  0  0  0  0  0  0
   -1.8822    0.8458    0.2152 C   0  0  0  0  0  0  0  0  0  0  0  0
   -2.0466   -0.4244   -0.5394 C   0  0  0  0  0  0  0  0  0  0  0  0
    0.2989   -0.5296    0.6009 C   0  0  0  0  0  0  0  0  0  0  0  0
    3.3747    1.0974    0.8281 H   0  0  0  0  0  0  0  0  0  0  0  0
    2.4020   -1.2237    0.7586 H   0  0  0  0  0  0  0  0  0  0  0  0
    0.9341   -1.6267   -1.2852 H   0  0  0  0  0  0  0  0  0  0  0  0
   -2.2812    1.7632   -0.2494 H   0  0  0  0  0  0  0  0  0  0  0  0
   -2.1678    0.7762    1.3038 H   0  0  0  0  0  0  0  0  0  0  0  0
   -2.3123   -1.3708   -0.0606 H   0  0  0  0  0  0  0  0  0  0  0  0
   -2.4589   -0.3362   -1.5878 H   0  0  0  0  0  0  0  0  0  0  0  0
   -0.0394   -1.3666    1.2063 H   0  0  0  0  0  0  0  0  0  0  0  0
  1  2  2  0
  2  3  1  0
  3  4  1  0
  4  5  1  0
  5  6  1  0
  6  7  1  0
  7  8  1  0
  6  9  1  0
  9  3  1  0
  9  4  1  0
  8  6  1  0
  2 10  1  0
  3 11  1  0
  4 12  1  0
  7 13  1  0
  7 14  1  0
  8 15  1  0
  8 16  1  0
  9 17  1  0
M  END
