
     RDKit          3D

 21 21  0  0  0  0  0  0  0  0999 V2000
   -3.4376    0.6652   -0.1266 O   0  0  0  0  0  0  0  0  0  0  0  0
   -2.3485    0.4127    0.3630 C   0  0  0  0  0  0  0  0  0  0  0  0
   -1.1271    0.1586   -0.4782 C   0  0  0  0  0  0  0  0  0  0  0  0
   -0.1763    1.2897   -0.4578 C   0  0  0  0  0  0  0  0  0  0  0  0
    0.7624    1.3152    0.7178 C   0  0  0  0  0  0  0  0  0  0  0  0
    1.7751    0.2361    0.6756 C   0  0  0  0  0  0  0  0  0  0  0  0
    1.8075   -0.9510    0.0980 C   0  0  0  0  0  0  0  0  0  0  0  0
    0.7186   -1.5310   -0.7267 C   0  0  0  0  0  0  0  0  0  0  0  0
   -0.5854   -1.1662   -0.0804 C   0  0  0  0  0  0  0  0  0  0  0  0
   -2.3146    0.3826    1.4479 H   0  0  0  0  0  0  0  0  0  0  0  0
   -1.5074    0.0547   -1.5380 H   0  0  0  0  0  0  0  0  0  0  0  0
   -0.7687    2.2429   -0.4067 H   0  0  0  0  0  0  0  0  0  0  0  0
    0.4249    1.3588   -1.3813 H   0  0  0  0  0  0  0  0  0  0  0  0
    0.2292    1.2535    1.6716 H   0  0  0  0  0  0  0  0  0  0  0  0
    1.3173    2.2777    0.6664 H   0  0  0  0  0  0  0  0  0  0  0  0
    2.6771    0.4748    1.2380 H   0  0  0  0  0  0  0  0  0  0  0  0
    2.6886   -1.5570    0.2277 H   0  0  0  0  0  0  0  0  0  0  0  0
    0.8244   -1.0649   -1.7460 H   0  0  0  0  0  0  0  0  0  0  0  0
    0.8743   -2.6187   -0.8170 H   0  0  0  0  0  0  0  0  0  0  0  0
   -0.4823   -1.2932    1.0273 H   0  0  0  0  0  0  0  0  0  0  0  0
   -1.3516   -1.9405   -0.3747 H   0  0  0  0  0  0  0  0  0  0  0  0
  1  2  2  0
  2  3  1  0
  3  4  1  0
  4  5  1  0
  5  6  1  0
  6  7  2  0
  7  8  1  0
  8  9  1  0
  9  3  1  0
  2 10  1  0
  3 11  1  0
  4 12  1  0
  4 13  1  0
  5 14  1  0
  5 15  1  0
  6 16  1  0
  7 17  1  0
  8 18  1  0
  8 19  1  0
  9 20  1  0
  9 21  1  0
M  END
