
     RDKit          3D

 17 18  0  0  0  0  0  0  0  0999 V2000
   -2.5256   -1.3311    1.0181 O   0  0  0  0  0  0  0  0  0  0  0  0
   -2.2049   -0.4324    0.2630 C   0  0  0  0  0  0  0  0  0  0  0  0
   -0.9416    0.2800    0.5413 C   0  0  0  0  0  0  0  0  0  0  0  0
   -0.6076    1.3240   -0.4675 C   0  0  0  0  0  0  0  0  0  0  0  0
    0.8057    1.3262   -0.4245 O   0  0  0  0  0  0  0  0  0  0  0  0
    1.1728    0.0077   -0.4956 C   0  0  0  0  0  0  0  0  0  0  0  0
    2.1018   -0.4652    0.5766 C   0  0  0  0  0  0  0  0  0  0  0  0
    1.0596   -0.6413    1.4637 O   0  0  0  0  0  0  0  0  0  0  0  0
    0.1879   -0.7087    0.3938 C   0  0  0  0  0  0  0  0  0  0  0  0
   -2.8710   -0.2187   -0.5618 H   0  0  0  0  0  0  0  0  0  0  0  0
   -1.0074    0.7154    1.5554 H   0  0  0  0  0  0  0  0  0  0  0  0
   -0.9555    2.3364   -0.1421 H   0  0  0  0  0  0  0  0  0  0  0  0
   -0.8955    1.0699   -1.4872 H   0  0  0  0  0  0  0  0  0  0  0  0
    1.3258   -0.4276   -1.4968 H   0  0  0  0  0  0  0  0  0  0  0  0
    2.5872   -1.4315    0.3613 H   0  0  0  0  0  0  0  0  0  0  0  0
    2.8426    0.2921    0.8867 H   0  0  0  0  0  0  0  0  0  0  0  0
   -0.0743   -1.6952    0.0156 H   0  0  0  0  0  0  0  0  0  0  0  0
  1  2  2  0
  2  3  1  0
  3  4  1  0
  4  5  1  0
  5  6  1  0
  6  7  1  0
  7  8  1  0
  8  9  1  0
  9  3  1  0
  9  6  1  0
  2 10  1  0
  3 11  1  0
  4 12  1  0
  4 13  1  0
  6 14  1  0
  7 15  1  0
  7 16  1  0
  9 17  1  0
M  END
