
     RDKit          3D

 19 20  0  0  0  0  0  0  0  0999 V2000
    3.3278    1.3278    0.1159 O   0  0  0  0  0  0  0  0  0  0  0  0
    3.3056    0.1411    0.0063 C   0  0  0  0  0  0  0  0  0  0  0  0
    2.0009   -0.5613   -0.0673 C   0  0  0  0  0  0  0  0  0  0  0  0
    0.9527    0.3485    0.0093 O   0  0  0  0  0  0  0  0  0  0  0  0
   -0.2279   -0.3329   -0.0617 C   0  0  0  0  0  0  0  0  0  0  0  0
   -1.2890    0.2650   -0.9493 C   0  0  0  0  0  0  0  0  0  0  0  0
   -2.2525   -0.5439   -0.1398 C   0  0  0  0  0  0  0  0  0  0  0  0
   -1.3111    0.0528    0.8929 C   0  0  0  0  0  0  0  0  0  0  0  0
   -1.4355    1.3245    0.1094 C   0  0  0  0  0  0  0  0  0  0  0  0
    4.2125   -0.4397   -0.0410 H   0  0  0  0  0  0  0  0  0  0  0  0
    1.9285   -1.3267    0.7582 H   0  0  0  0  0  0  0  0  0  0  0  0
    1.9639   -1.1616   -1.0070 H   0  0  0  0  0  0  0  0  0  0  0  0
   -0.0932   -1.4205   -0.1609 H   0  0  0  0  0  0  0  0  0  0  0  0
   -1.2539    0.3888   -1.9380 H   0  0  0  0  0  0  0  0  0  0  0  0
   -2.1181   -1.6295   -0.2586 H   0  0  0  0  0  0  0  0  0  0  0  0
   -3.2604   -0.1403   -0.1652 H   0  0  0  0  0  0  0  0  0  0  0  0
   -1.3584   -0.0792    1.8785 H   0  0  0  0  0  0  0  0  0  0  0  0
   -0.6228    2.0475    0.1897 H   0  0  0  0  0  0  0  0  0  0  0  0
   -2.4689    1.7398    0.1336 H   0  0  0  0  0  0  0  0  0  0  0  0
  1  2  2  0
  2  3  1  0
  3  4  1  0
  4  5  1  0
  5  6  1  0
  6  7  1  0
  7  8  1  0
  8  9  1  0
  8  5  1  0
  9  6  1  0
  2 10  1  0
  3 11  1  0
  3 12  1  0
  5 13  1  0
  6 14  1  0
  7 15  1  0
  7 16  1  0
  8 17  1  0
  9 18  1  0
  9 19  1  0
M  END
