
     RDKit          3D

 15 16  0  0  0  0  0  0  0  0999 V2000
   -1.7947    1.4203   -0.6022 O   0  0  0  0  0  0  0  0  0  0  0  0
   -1.9891    0.5536    0.2111 C   0  0  0  0  0  0  0  0  0  0  0  0
   -1.0444   -0.5689    0.4317 C   0  0  0  0  0  0  0  0  0  0  0  0
   -0.3599   -1.0956   -0.8737 C   0  0  0  0  0  0  0  0  0  0  0  0
    0.3511   -0.3332    0.1242 C   0  0  0  0  0  0  0  0  0  0  0  0
    1.0141    0.9652   -0.0392 C   0  0  0  0  0  0  0  0  0  0  0  0
    2.2356    0.1212    0.1259 C   0  0  0  0  0  0  0  0  0  0  0  0
    3.4450    0.2837   -0.2055 O   0  0  0  0  0  0  0  0  0  0  0  0
    1.4557   -0.8376    0.7629 O   0  0  0  0  0  0  0  0  0  0  0  0
   -2.8841    0.5853    0.8093 H   0  0  0  0  0  0  0  0  0  0  0  0
   -1.2896   -1.3205    1.1906 H   0  0  0  0  0  0  0  0  0  0  0  0
   -0.7592   -0.6872   -1.8206 H   0  0  0  0  0  0  0  0  0  0  0  0
   -0.2664   -2.2012   -0.8959 H   0  0  0  0  0  0  0  0  0  0  0  0
    0.9402    1.4924   -0.9929 H   0  0  0  0  0  0  0  0  0  0  0  0
    0.9457    1.6225    0.8753 H   0  0  0  0  0  0  0  0  0  0  0  0
  1  2  2  0
  2  3  1  0
  3  4  1  0
  4  5  1  0
  5  6  1  0
  6  7  1  0
  7  8  2  0
  7  9  1  0
  5  3  1  0
  9  5  1  0
  2 10  1  0
  3 11  1  0
  4 12  1  0
  4 13  1  0
  6 14  1  0
  6 15  1  0
M  END
