
     RDKit          3D

 17 18  0  0  0  0  0  0  0  0999 V2000
    2.0593    1.1716    1.2068 O   0  0  0  0  0  0  0  0  0  0  0  0
    2.0161    0.0309    0.7896 C   0  0  0  0  0  0  0  0  0  0  0  0
    1.2104   -0.2590   -0.3999 C   0  0  0  0  0  0  0  0  0  0  0  0
    0.1644   -1.3113   -0.1831 C   0  0  0  0  0  0  0  0  0  0  0  0
   -1.1329   -0.5658   -0.2839 C   0  0  0  0  0  0  0  0  0  0  0  0
   -1.5449   -0.1170    0.9545 O   0  0  0  0  0  0  0  0  0  0  0  0
   -1.3684    1.1994    0.5382 C   0  0  0  0  0  0  0  0  0  0  0  0
   -0.7384    0.7819   -0.7589 C   0  0  0  0  0  0  0  0  0  0  0  0
    0.6080    0.8686   -0.8669 O   0  0  0  0  0  0  0  0  0  0  0  0
    2.5924   -0.7198    1.3394 H   0  0  0  0  0  0  0  0  0  0  0  0
    1.9208   -0.6836   -1.1710 H   0  0  0  0  0  0  0  0  0  0  0  0
    0.1594   -2.0857   -0.9910 H   0  0  0  0  0  0  0  0  0  0  0  0
    0.2164   -1.8106    0.7878 H   0  0  0  0  0  0  0  0  0  0  0  0
   -1.9216   -1.0658   -0.8939 H   0  0  0  0  0  0  0  0  0  0  0  0
   -0.6426    1.7112    1.1904 H   0  0  0  0  0  0  0  0  0  0  0  0
   -2.3468    1.6879    0.4098 H   0  0  0  0  0  0  0  0  0  0  0  0
   -1.2515    1.1671   -1.6679 H   0  0  0  0  0  0  0  0  0  0  0  0
  1  2  2  0
  2  3  1  0
  3  4  1  0
  4  5  1  0
  5  6  1  0
  6  7  1  0
  7  8  1  0
  8  9  1  0
  9  3  1  0
  8  5  1  0
  2 10  1  0
  3 11  1  0
  4 12  1  0
  4 13  1  0
  5 14  1  0
  7 15  1  0
  7 16  1  0
  8 17  1  0
M  END
