
     RDKit          3D

 15 16  0  0  0  0  0  0  0  0999 V2000
   -2.3665    1.9187    0.1038 O   0  0  0  0  0  0  0  0  0  0  0  0
   -1.3287    1.4694    0.5013 C   0  0  0  0  0  0  0  0  0  0  0  0
   -0.4221    0.6065   -0.3029 C   0  0  0  0  0  0  0  0  0  0  0  0
   -0.7239    0.2596   -1.5841 O   0  0  0  0  0  0  0  0  0  0  0  0
   -1.0773   -0.7294   -0.6840 C   0  0  0  0  0  0  0  0  0  0  0  0
   -0.1170   -1.7178   -0.2028 C   0  0  0  0  0  0  0  0  0  0  0  0
    0.9897   -1.1678    0.2784 C   0  0  0  0  0  0  0  0  0  0  0  0
    0.9461    0.2993    0.1949 C   0  0  0  0  0  0  0  0  0  0  0  0
    1.8704    0.8097   -0.7268 O   0  0  0  0  0  0  0  0  0  0  0  0
   -1.0110    1.6958    1.5139 H   0  0  0  0  0  0  0  0  0  0  0  0
   -2.1551   -0.8558   -0.5255 H   0  0  0  0  0  0  0  0  0  0  0  0
   -0.2689   -2.7880   -0.2258 H   0  0  0  0  0  0  0  0  0  0  0  0
    1.8628   -1.6988    0.7000 H   0  0  0  0  0  0  0  0  0  0  0  0
    1.1222    0.7310    1.2201 H   0  0  0  0  0  0  0  0  0  0  0  0
    2.6793    1.1675   -0.2605 H   0  0  0  0  0  0  0  0  0  0  0  0
  1  2  2  0
  2  3  1  0
  3  4  1  0
  4  5  1  0
  5  6  1  0
  6  7  2  0
  7  8  1  0
  8  9  1  0
  5  3  1  0
  8  3  1  0
  2 10  1  0
  5 11  1  0
  6 12  1  0
  7 13  1  0
  8 14  1  0
  9 15  1  0
M  END
