
     RDKit          3D

 16 17  0  0  0  0  0  0  0  0999 V2000
    2.5865    0.5198   -0.3743 O   0  0  0  0  0  0  0  0  0  0  0  0
    1.7026   -0.2197   -0.7915 C   0  0  0  0  0  0  0  0  0  0  0  0
    0.3917   -0.1326   -0.2937 C   0  0  0  0  0  0  0  0  0  0  0  0
   -0.7925   -0.6618   -1.0045 C   0  0  0  0  0  0  0  0  0  0  0  0
   -1.8215   -0.2999   -0.0935 O   0  0  0  0  0  0  0  0  0  0  0  0
   -1.1301    0.3383    0.9087 C   0  0  0  0  0  0  0  0  0  0  0  0
   -0.1500    1.2338    0.1562 C   0  0  0  0  0  0  0  0  0  0  0  0
    0.0978   -0.5546    1.1534 C   0  0  0  0  0  0  0  0  0  0  0  0
    1.9796   -0.9494   -1.5676 H   0  0  0  0  0  0  0  0  0  0  0  0
   -0.9668   -0.1008   -1.9437 H   0  0  0  0  0  0  0  0  0  0  0  0
   -0.8028   -1.7568   -1.1623 H   0  0  0  0  0  0  0  0  0  0  0  0
   -1.6227    0.7339    1.7584 H   0  0  0  0  0  0  0  0  0  0  0  0
   -0.6665    1.7297   -0.6673 H   0  0  0  0  0  0  0  0  0  0  0  0
    0.5399    1.8046    0.7699 H   0  0  0  0  0  0  0  0  0  0  0  0
   -0.1279   -1.6110    1.2866 H   0  0  0  0  0  0  0  0  0  0  0  0
    0.7826   -0.0735    1.8652 H   0  0  0  0  0  0  0  0  0  0  0  0
  1  2  2  0
  2  3  1  0
  3  4  1  0
  4  5  1  0
  5  6  1  0
  6  7  1  0
  6  8  1  0
  7  3  1  0
  8  3  1  0
  2  9  1  0
  4 10  1  0
  4 11  1  0
  6 12  1  0
  7 13  1  0
  7 14  1  0
  8 15  1  0
  8 16  1  0
M  END
