
     RDKit          3D

 17 18  0  0  0  0  0  0  0  0999 V2000
    2.8915   -1.1365   -0.1953 O   0  0  0  0  0  0  0  0  0  0  0  0
    2.0612   -0.3705    0.2939 C   0  0  0  0  0  0  0  0  0  0  0  0
    0.6486   -0.5776   -0.0709 C   0  0  0  0  0  0  0  0  0  0  0  0
   -0.2755   -0.4727    1.1521 C   0  0  0  0  0  0  0  0  0  0  0  0
   -1.6290   -0.4286    0.4725 C   0  0  0  0  0  0  0  0  0  0  0  0
   -2.1749    0.7774    0.0975 O   0  0  0  0  0  0  0  0  0  0  0  0
   -1.3867    0.2272   -0.8869 C   0  0  0  0  0  0  0  0  0  0  0  0
    0.0886    0.6043   -0.8767 C   0  0  0  0  0  0  0  0  0  0  0  0
    0.2945    1.7319   -0.0852 O   0  0  0  0  0  0  0  0  0  0  0  0
    2.3460    0.4131    0.9554 H   0  0  0  0  0  0  0  0  0  0  0  0
    0.4677   -1.4855   -0.6480 H   0  0  0  0  0  0  0  0  0  0  0  0
   -0.1604   -1.3266    1.8192 H   0  0  0  0  0  0  0  0  0  0  0  0
   -0.0187    0.5065    1.6178 H   0  0  0  0  0  0  0  0  0  0  0  0
   -2.2320   -1.3478    0.5211 H   0  0  0  0  0  0  0  0  0  0  0  0
   -1.7976   -0.3501   -1.7149 H   0  0  0  0  0  0  0  0  0  0  0  0
    0.5239    0.6702   -1.8708 H   0  0  0  0  0  0  0  0  0  0  0  0
    0.3529    2.5653   -0.5811 H   0  0  0  0  0  0  0  0  0  0  0  0
  1  2  2  0
  2  3  1  0
  3  4  1  0
  4  5  1  0
  5  6  1  0
  6  7  1  0
  7  8  1  0
  8  9  1  0
  8  3  1  0
  7  5  1  0
  2 10  1  0
  3 11  1  0
  4 12  1  0
  4 13  1  0
  5 14  1  0
  7 15  1  0
  8 16  1  0
  9 17  1  0
M  END
