
     RDKit          3D

 19 20  0  0  0  0  0  0  0  0999 V2000
    3.0799    1.4576   -0.7532 O   0  0  0  0  0  0  0  0  0  0  0  0
    2.6975    0.4593   -0.1657 C   0  0  0  0  0  0  0  0  0  0  0  0
    1.4829   -0.2757   -0.5117 C   0  0  0  0  0  0  0  0  0  0  0  0
    0.8646   -1.0191    0.7012 C   0  0  0  0  0  0  0  0  0  0  0  0
   -0.4057   -0.8461   -0.0840 C   0  0  0  0  0  0  0  0  0  0  0  0
   -1.6466   -0.4344    0.6575 C   0  0  0  0  0  0  0  0  0  0  0  0
   -2.0889    0.7524   -0.1957 C   0  0  0  0  0  0  0  0  0  0  0  0
   -0.7789    1.3473   -0.5793 C   0  0  0  0  0  0  0  0  0  0  0  0
    0.2127    0.4865   -0.5088 C   0  0  0  0  0  0  0  0  0  0  0  0
    3.3086    0.1113    0.6602 H   0  0  0  0  0  0  0  0  0  0  0  0
    1.5309   -0.9344   -1.3954 H   0  0  0  0  0  0  0  0  0  0  0  0
    0.9227   -0.3703    1.5714 H   0  0  0  0  0  0  0  0  0  0  0  0
    1.2462   -2.0484    0.7898 H   0  0  0  0  0  0  0  0  0  0  0  0
   -0.5339   -1.5032   -0.9429 H   0  0  0  0  0  0  0  0  0  0  0  0
   -1.4227   -0.1656    1.6859 H   0  0  0  0  0  0  0  0  0  0  0  0
   -2.4368   -1.2115    0.6557 H   0  0  0  0  0  0  0  0  0  0  0  0
   -2.7091    1.4629    0.3605 H   0  0  0  0  0  0  0  0  0  0  0  0
   -2.6389    0.3317   -1.0605 H   0  0  0  0  0  0  0  0  0  0  0  0
   -0.6843    2.3997   -0.8849 H   0  0  0  0  0  0  0  0  0  0  0  0
  1  2  2  0
  2  3  1  0
  3  4  1  0
  4  5  1  0
  5  6  1  0
  6  7  1  0
  7  8  1  0
  8  9  2  0
  9  3  1  0
  9  5  1  0
  2 10  1  0
  3 11  1  0
  4 12  1  0
  4 13  1  0
  5 14  1  0
  6 15  1  0
  6 16  1  0
  7 17  1  0
  7 18  1  0
  8 19  1  0
M  END
