
     RDKit          3D

 15 16  0  0  0  0  0  0  0  0999 V2000
   -1.2281    2.5197    0.2345 O   0  0  0  0  0  0  0  0  0  0  0  0
   -0.4778    1.6844   -0.2399 C   0  0  0  0  0  0  0  0  0  0  0  0
   -0.3587    0.2986    0.2020 C   0  0  0  0  0  0  0  0  0  0  0  0
    0.9071   -0.0439    0.9535 C   0  0  0  0  0  0  0  0  0  0  0  0
    1.7123   -0.6924   -0.1242 C   0  0  0  0  0  0  0  0  0  0  0  0
    2.9448   -0.6059   -0.2796 O   0  0  0  0  0  0  0  0  0  0  0  0
    0.7690   -1.3944   -0.8856 O   0  0  0  0  0  0  0  0  0  0  0  0
   -0.4417   -0.7189   -0.9445 C   0  0  0  0  0  0  0  0  0  0  0  0
   -1.4188   -0.6973    0.1631 C   0  0  0  0  0  0  0  0  0  0  0  0
    0.1518    2.0122   -1.0627 H   0  0  0  0  0  0  0  0  0  0  0  0
    0.6218   -0.7928    1.7273 H   0  0  0  0  0  0  0  0  0  0  0  0
    1.4085    0.8341    1.3698 H   0  0  0  0  0  0  0  0  0  0  0  0
   -0.7991   -0.3681   -1.9262 H   0  0  0  0  0  0  0  0  0  0  0  0
   -1.3205   -1.5555    0.8870 H   0  0  0  0  0  0  0  0  0  0  0  0
   -2.4707   -0.4797   -0.0746 H   0  0  0  0  0  0  0  0  0  0  0  0
  1  2  2  0
  2  3  1  0
  3  4  1  0
  4  5  1  0
  5  6  2  0
  5  7  1  0
  7  8  1  0
  8  9  1  0
  8  3  1  0
  9  3  1  0
  2 10  1  0
  4 11  1  0
  4 12  1  0
  8 13  1  0
  9 14  1  0
  9 15  1  0
M  END
