
     RDKit          3D

 15 17  0  0  0  0  0  0  0  0999 V2000
    2.7961   -0.8597    0.3492 O   0  0  0  0  0  0  0  0  0  0  0  0
    2.1341    0.1452    0.4571 C   0  0  0  0  0  0  0  0  0  0  0  0
    0.6793    0.1303    0.3226 C   0  0  0  0  0  0  0  0  0  0  0  0
   -0.0368    1.3161    0.4559 O   0  0  0  0  0  0  0  0  0  0  0  0
   -1.1796    1.2469   -0.2876 C   0  0  0  0  0  0  0  0  0  0  0  0
   -1.3322   -0.2087   -0.7500 C   0  0  0  0  0  0  0  0  0  0  0  0
   -1.4923   -1.0091    0.3636 O   0  0  0  0  0  0  0  0  0  0  0  0
   -0.1133   -1.1032    0.5751 C   0  0  0  0  0  0  0  0  0  0  0  0
    0.1040   -0.6248   -0.7861 C   0  0  0  0  0  0  0  0  0  0  0  0
    2.6423    1.0699    0.6579 H   0  0  0  0  0  0  0  0  0  0  0  0
   -2.0922    1.5276    0.2688 H   0  0  0  0  0  0  0  0  0  0  0  0
   -1.0709    1.8655   -1.2254 H   0  0  0  0  0  0  0  0  0  0  0  0
   -1.9527   -0.3740   -1.6131 H   0  0  0  0  0  0  0  0  0  0  0  0
    0.3242   -2.0114    0.9877 H   0  0  0  0  0  0  0  0  0  0  0  0
    0.5901   -1.1107   -1.5926 H   0  0  0  0  0  0  0  0  0  0  0  0
  1  2  2  0
  2  3  1  0
  3  4  1  0
  4  5  1  0
  5  6  1  0
  6  7  1  0
  7  8  1  0
  8  9  1  0
  8  3  1  0
  9  3  1  0
  9  6  1  0
  2 10  1  0
  5 11  1  0
  5 12  1  0
  6 13  1  0
  8 14  1  0
  9 15  1  0
M  END
