
     RDKit          3D

 13 13  0  0  0  0  0  0  0  0999 V2000
   -2.6694    0.2961    0.8001 O   0  0  0  0  0  0  0  0  0  0  0  0
   -1.4557    0.4486    0.9354 C   0  0  0  0  0  0  0  0  0  0  0  0
   -0.5727    0.4011   -0.2429 C   0  0  0  0  0  0  0  0  0  0  0  0
   -1.3138    0.1740   -1.4045 O   0  0  0  0  0  0  0  0  0  0  0  0
    0.5302   -0.5944   -0.0660 C   0  0  0  0  0  0  0  0  0  0  0  0
    1.9075   -0.0745    0.1285 C   0  0  0  0  0  0  0  0  0  0  0  0
    1.5109   -0.5946   -1.1698 O   0  0  0  0  0  0  0  0  0  0  0  0
   -1.0958    0.6124    1.9309 H   0  0  0  0  0  0  0  0  0  0  0  0
   -0.1133    1.4053   -0.3478 H   0  0  0  0  0  0  0  0  0  0  0  0
   -1.6578   -0.7343   -1.4729 H   0  0  0  0  0  0  0  0  0  0  0  0
    0.3012   -1.6506    0.1670 H   0  0  0  0  0  0  0  0  0  0  0  0
    2.5869   -0.7062    0.6968 H   0  0  0  0  0  0  0  0  0  0  0  0
    2.0417    1.0169    0.0452 H   0  0  0  0  0  0  0  0  0  0  0  0
  1  2  2  0
  2  3  1  0
  3  4  1  0
  3  5  1  0
  5  6  1  0
  6  7  1  0
  7  5  1  0
  2  8  1  0
  3  9  1  0
  4 10  1  0
  5 11  1  0
  6 12  1  0
  6 13  1  0
M  END
