
     RDKit          3D

 14 15  0  0  0  0  0  0  0  0999 V2000
    2.4891    0.8186   -0.4274 O   0  0  0  0  0  0  0  0  0  0  0  0
    1.8277   -0.0866    0.0003 C   0  0  0  0  0  0  0  0  0  0  0  0
    0.3962   -0.0197    0.2571 C   0  0  0  0  0  0  0  0  0  0  0  0
   -0.4517   -1.2438    0.1123 C   0  0  0  0  0  0  0  0  0  0  0  0
   -1.4409   -0.4878   -0.7052 C   0  0  0  0  0  0  0  0  0  0  0  0
   -2.4962   -0.6648   -1.2829 O   0  0  0  0  0  0  0  0  0  0  0  0
   -0.5727    0.7109   -0.5451 C   0  0  0  0  0  0  0  0  0  0  0  0
   -0.2455    1.2033    0.8107 C   0  0  0  0  0  0  0  0  0  0  0  0
    2.3457   -1.0263    0.2096 H   0  0  0  0  0  0  0  0  0  0  0  0
    0.0044   -2.0421   -0.5169 H   0  0  0  0  0  0  0  0  0  0  0  0
   -0.8720   -1.5585    1.0623 H   0  0  0  0  0  0  0  0  0  0  0  0
   -0.3664    1.2588   -1.4607 H   0  0  0  0  0  0  0  0  0  0  0  0
    0.3453    2.1395    0.8451 H   0  0  0  0  0  0  0  0  0  0  0  0
   -0.9630    0.9987    1.6409 H   0  0  0  0  0  0  0  0  0  0  0  0
  1  2  2  0
  2  3  1  0
  3  4  1  0
  4  5  1  0
  5  6  2  0
  5  7  1  0
  7  8  1  0
  7  3  1  0
  8  3  1  0
  2  9  1  0
  4 10  1  0
  4 11  1  0
  7 12  1  0
  8 13  1  0
  8 14  1  0
M  END
