
     RDKit          3D

 17 18  0  0  0  0  0  0  0  0999 V2000
    1.8417    0.7496   -1.7986 O   0  0  0  0  0  0  0  0  0  0  0  0
    1.8497    0.7013   -0.5850 C   0  0  0  0  0  0  0  0  0  0  0  0
    0.7279    0.0935    0.1218 C   0  0  0  0  0  0  0  0  0  0  0  0
   -0.3127    1.0352    0.6542 C   0  0  0  0  0  0  0  0  0  0  0  0
   -1.6268    0.6057    0.0882 C   0  0  0  0  0  0  0  0  0  0  0  0
   -1.3484   -0.6607   -0.6533 C   0  0  0  0  0  0  0  0  0  0  0  0
   -2.2312   -1.2542   -1.2539 O   0  0  0  0  0  0  0  0  0  0  0  0
    0.0565   -1.0412   -0.5462 C   0  0  0  0  0  0  0  0  0  0  0  0
    0.7644   -1.2509    0.7177 C   0  0  0  0  0  0  0  0  0  0  0  0
    2.7003    1.1167   -0.0678 H   0  0  0  0  0  0  0  0  0  0  0  0
   -0.0971    2.0781    0.4117 H   0  0  0  0  0  0  0  0  0  0  0  0
   -0.3416    0.8737    1.7717 H   0  0  0  0  0  0  0  0  0  0  0  0
   -2.0332    1.3642   -0.6192 H   0  0  0  0  0  0  0  0  0  0  0  0
   -2.3728    0.3414    0.8694 H   0  0  0  0  0  0  0  0  0  0  0  0
    0.4852   -1.4982   -1.4708 H   0  0  0  0  0  0  0  0  0  0  0  0
    0.2417   -1.3842    1.6906 H   0  0  0  0  0  0  0  0  0  0  0  0
    1.6965   -1.8700    0.6695 H   0  0  0  0  0  0  0  0  0  0  0  0
  1  2  2  0
  2  3  1  0
  3  4  1  0
  4  5  1  0
  5  6  1  0
  6  7  2  0
  6  8  1  0
  8  9  1  0
  8  3  1  0
  9  3  1  0
  2 10  1  0
  4 11  1  0
  4 12  1  0
  5 13  1  0
  5 14  1  0
  8 15  1  0
  9 16  1  0
  9 17  1  0
M  END
