
     RDKit          3D

 19 19  0  0  0  0  0  0  0  0999 V2000
    3.0274    1.6523    0.3575 O   0  0  0  0  0  0  0  0  0  0  0  0
    1.8668    1.3348    0.3991 C   0  0  0  0  0  0  0  0  0  0  0  0
    1.4377    0.0620   -0.1966 C   0  0  0  0  0  0  0  0  0  0  0  0
   -0.0413   -0.1919   -0.0639 C   0  0  0  0  0  0  0  0  0  0  0  0
   -0.9294    0.8311   -0.7066 C   0  0  0  0  0  0  0  0  0  0  0  0
   -2.2492    0.4428   -0.4886 O   0  0  0  0  0  0  0  0  0  0  0  0
   -0.5092   -0.7667    1.2272 C   0  0  0  0  0  0  0  0  0  0  0  0
   -1.4210   -1.5582    0.4905 O   0  0  0  0  0  0  0  0  0  0  0  0
   -0.4396   -1.5808   -0.5218 C   0  0  0  0  0  0  0  0  0  0  0  0
    1.1556    1.9800    0.8688 H   0  0  0  0  0  0  0  0  0  0  0  0
    1.6814    0.0799   -1.2750 H   0  0  0  0  0  0  0  0  0  0  0  0
    1.9686   -0.7563    0.3417 H   0  0  0  0  0  0  0  0  0  0  0  0
   -0.8006    0.8815   -1.8110 H   0  0  0  0  0  0  0  0  0  0  0  0
   -0.7202    1.8559   -0.3318 H   0  0  0  0  0  0  0  0  0  0  0  0
   -2.7162    1.1821   -0.0356 H   0  0  0  0  0  0  0  0  0  0  0  0
   -1.0267   -0.0881    1.9281 H   0  0  0  0  0  0  0  0  0  0  0  0
    0.2475   -1.4368    1.6610 H   0  0  0  0  0  0  0  0  0  0  0  0
   -0.8712   -1.5954   -1.5354 H   0  0  0  0  0  0  0  0  0  0  0  0
    0.3395   -2.3283   -0.3077 H   0  0  0  0  0  0  0  0  0  0  0  0
  1  2  2  0
  2  3  1  0
  3  4  1  0
  4  5  1  0
  5  6  1  0
  4  7  1  0
  7  8  1  0
  8  9  1  0
  9  4  1  0
  2 10  1  0
  3 11  1  0
  3 12  1  0
  5 13  1  0
  5 14  1  0
  6 15  1  0
  7 16  1  0
  7 17  1  0
  9 18  1  0
  9 19  1  0
M  END
