
     RDKit          3D

 17 17  0  0  0  0  0  0  0  0999 V2000
   -3.1372   -0.0599    0.5274 O   0  0  0  0  0  0  0  0  0  0  0  0
   -2.1178   -0.5512    0.0970 C   0  0  0  0  0  0  0  0  0  0  0  0
   -0.8280    0.1486    0.1582 C   0  0  0  0  0  0  0  0  0  0  0  0
   -0.9288    1.3933    0.7489 O   0  0  0  0  0  0  0  0  0  0  0  0
    0.1614   -0.6379    0.9571 C   0  0  0  0  0  0  0  0  0  0  0  0
    1.4422   -0.4694    0.6441 C   0  0  0  0  0  0  0  0  0  0  0  0
    1.9151    0.4311   -0.4232 C   0  0  0  0  0  0  0  0  0  0  0  0
    0.9667    0.8632   -1.2877 O   0  0  0  0  0  0  0  0  0  0  0  0
   -0.2465    0.2380   -1.2382 C   0  0  0  0  0  0  0  0  0  0  0  0
   -2.1814   -1.5354   -0.3413 H   0  0  0  0  0  0  0  0  0  0  0  0
   -1.0889    1.2295    1.7306 H   0  0  0  0  0  0  0  0  0  0  0  0
   -0.1165   -1.3133    1.7504 H   0  0  0  0  0  0  0  0  0  0  0  0
    2.2080   -1.0185    1.1948 H   0  0  0  0  0  0  0  0  0  0  0  0
    2.4232    1.3231    0.0203 H   0  0  0  0  0  0  0  0  0  0  0  0
    2.7202   -0.1221   -0.9861 H   0  0  0  0  0  0  0  0  0  0  0  0
   -0.9559    0.8470   -1.8681 H   0  0  0  0  0  0  0  0  0  0  0  0
   -0.2358   -0.7660   -1.6841 H   0  0  0  0  0  0  0  0  0  0  0  0
  1  2  2  0
  2  3  1  0
  3  4  1  0
  3  5  1  0
  5  6  2  0
  6  7  1  0
  7  8  1  0
  8  9  1  0
  9  3  1  0
  2 10  1  0
  4 11  1  0
  5 12  1  0
  6 13  1  0
  7 14  1  0
  7 15  1  0
  9 16  1  0
  9 17  1  0
M  END
