
     RDKit          3D

 17 18  0  0  0  0  0  0  0  0999 V2000
    3.0340   -0.9979   -0.1407 O   0  0  0  0  0  0  0  0  0  0  0  0
    1.7889   -1.1211   -0.1927 C   0  0  0  0  0  0  0  0  0  0  0  0
    0.8522   -0.0511    0.1920 C   0  0  0  0  0  0  0  0  0  0  0  0
    1.1509    1.1500    0.6315 C   0  0  0  0  0  0  0  0  0  0  0  0
   -0.1168    1.8538    0.8812 C   0  0  0  0  0  0  0  0  0  0  0  0
   -1.0908    0.8550    0.9290 O   0  0  0  0  0  0  0  0  0  0  0  0
   -0.6005   -0.1557    0.1429 C   0  0  0  0  0  0  0  0  0  0  0  0
   -1.3351   -1.3842   -0.1527 C   0  0  0  0  0  0  0  0  0  0  0  0
   -1.1725   -0.3928   -1.2322 C   0  0  0  0  0  0  0  0  0  0  0  0
    1.3598   -2.0428   -0.5312 H   0  0  0  0  0  0  0  0  0  0  0  0
    2.1491    1.5209    0.7722 H   0  0  0  0  0  0  0  0  0  0  0  0
   -0.3772    2.6147    0.1511 H   0  0  0  0  0  0  0  0  0  0  0  0
   -0.0325    2.3506    1.8827 H   0  0  0  0  0  0  0  0  0  0  0  0
   -0.7391   -2.3320   -0.1237 H   0  0  0  0  0  0  0  0  0  0  0  0
   -2.3224   -1.5012    0.3509 H   0  0  0  0  0  0  0  0  0  0  0  0
   -0.4712   -0.5823   -2.0707 H   0  0  0  0  0  0  0  0  0  0  0  0
   -2.0768    0.2162   -1.4894 H   0  0  0  0  0  0  0  0  0  0  0  0
  1  2  2  0
  2  3  1  0
  3  4  2  0
  4  5  1  0
  5  6  1  0
  6  7  1  0
  7  8  1  0
  8  9  1  0
  7  3  1  0
  9  7  1  0
  2 10  1  0
  4 11  1  0
  5 12  1  0
  5 13  1  0
  8 14  1  0
  8 15  1  0
  9 16  1  0
  9 17  1  0
M  END
