
     RDKit          3D

 17 18  0  0  0  0  0  0  0  0999 V2000
    3.1369   -1.0018   -0.1751 O   0  0  0  0  0  0  0  0  0  0  0  0
    2.4577   -0.0367   -0.4763 C   0  0  0  0  0  0  0  0  0  0  0  0
    1.0694    0.0667    0.0635 C   0  0  0  0  0  0  0  0  0  0  0  0
    0.4428    1.2299   -0.3829 O   0  0  0  0  0  0  0  0  0  0  0  0
   -0.7246    1.3666    0.3685 C   0  0  0  0  0  0  0  0  0  0  0  0
   -1.7168    0.2787    0.1332 C   0  0  0  0  0  0  0  0  0  0  0  0
   -1.1348   -1.0268   -0.2757 C   0  0  0  0  0  0  0  0  0  0  0  0
   -0.3936   -1.7911    0.6087 O   0  0  0  0  0  0  0  0  0  0  0  0
    0.2707   -1.1077   -0.4135 C   0  0  0  0  0  0  0  0  0  0  0  0
    2.8992    0.7082   -1.1286 H   0  0  0  0  0  0  0  0  0  0  0  0
    1.1223    0.1328    1.1762 H   0  0  0  0  0  0  0  0  0  0  0  0
   -1.1803    2.3639    0.1471 H   0  0  0  0  0  0  0  0  0  0  0  0
   -0.4123    1.3758    1.4313 H   0  0  0  0  0  0  0  0  0  0  0  0
   -2.3928    0.6202   -0.6958 H   0  0  0  0  0  0  0  0  0  0  0  0
   -2.3695    0.1773    1.0197 H   0  0  0  0  0  0  0  0  0  0  0  0
   -1.7874   -1.6592   -0.9406 H   0  0  0  0  0  0  0  0  0  0  0  0
    0.7131   -1.6967   -1.2526 H   0  0  0  0  0  0  0  0  0  0  0  0
  1  2  2  0
  2  3  1  0
  3  4  1  0
  4  5  1  0
  5  6  1  0
  6  7  1  0
  7  8  1  0
  8  9  1  0
  9  3  1  0
  9  7  1  0
  2 10  1  0
  3 11  1  0
  5 12  1  0
  5 13  1  0
  6 14  1  0
  6 15  1  0
  7 16  1  0
  9 17  1  0
M  END
