
     RDKit          3D

 19 18  0  0  0  0  0  0  0  0999 V2000
    3.3073   -0.1517   -0.5874 O   0  0  0  0  0  0  0  0  0  0  0  0
    2.6420    0.7369   -0.0520 C   0  0  0  0  0  0  0  0  0  0  0  0
    1.4381    0.4314    0.7215 C   0  0  0  0  0  0  0  0  0  0  0  0
    0.1946    0.2194   -0.1204 C   0  0  0  0  0  0  0  0  0  0  0  0
    0.4849   -0.9262   -1.0244 C   0  0  0  0  0  0  0  0  0  0  0  0
    1.1745   -0.6990   -2.0212 O   0  0  0  0  0  0  0  0  0  0  0  0
   -0.9286   -0.1056    0.8342 C   0  0  0  0  0  0  0  0  0  0  0  0
   -2.2360   -0.3425    0.1287 C   0  0  0  0  0  0  0  0  0  0  0  0
   -2.6810    0.7242   -0.5960 O   0  0  0  0  0  0  0  0  0  0  0  0
    2.9514    1.7807   -0.1525 H   0  0  0  0  0  0  0  0  0  0  0  0
    1.5826   -0.5383    1.2828 H   0  0  0  0  0  0  0  0  0  0  0  0
    1.1818    1.2035    1.4736 H   0  0  0  0  0  0  0  0  0  0  0  0
   -0.0177    1.1146   -0.7328 H   0  0  0  0  0  0  0  0  0  0  0  0
    0.1183   -1.9440   -0.8454 H   0  0  0  0  0  0  0  0  0  0  0  0
   -0.6521   -1.0169    1.3983 H   0  0  0  0  0  0  0  0  0  0  0  0
   -1.0832    0.7005    1.5786 H   0  0  0  0  0  0  0  0  0  0  0  0
   -2.1305   -1.2079   -0.5901 H   0  0  0  0  0  0  0  0  0  0  0  0
   -3.0299   -0.6531    0.8323 H   0  0  0  0  0  0  0  0  0  0  0  0
   -2.3164    0.6739   -1.5278 H   0  0  0  0  0  0  0  0  0  0  0  0
  1  2  2  0
  2  3  1  0
  3  4  1  0
  4  5  1  0
  5  6  2  0
  4  7  1  0
  7  8  1  0
  8  9  1  0
  2 10  1  0
  3 11  1  0
  3 12  1  0
  4 13  1  0
  5 14  1  0
  7 15  1  0
  7 16  1  0
  8 17  1  0
  8 18  1  0
  9 19  1  0
M  END
