
     RDKit          3D

 17 18  0  0  0  0  0  0  0  0999 V2000
   -3.2082    1.4550    0.2030 O   0  0  0  0  0  0  0  0  0  0  0  0
   -2.1018    1.2045    0.6632 C   0  0  0  0  0  0  0  0  0  0  0  0
   -1.1512    0.4749   -0.1828 C   0  0  0  0  0  0  0  0  0  0  0  0
   -1.1244   -1.0495    0.0655 C   0  0  0  0  0  0  0  0  0  0  0  0
    0.2894   -0.9585   -0.3257 C   0  0  0  0  0  0  0  0  0  0  0  0
    1.5203   -1.0701   -0.7605 C   0  0  0  0  0  0  0  0  0  0  0  0
    2.2617    0.1581   -0.3836 C   0  0  0  0  0  0  0  0  0  0  0  0
    1.2348    1.1172   -0.3309 O   0  0  0  0  0  0  0  0  0  0  0  0
    0.2590    0.4015    0.3548 C   0  0  0  0  0  0  0  0  0  0  0  0
   -1.8352    1.5165    1.6729 H   0  0  0  0  0  0  0  0  0  0  0  0
   -1.1558    0.7057   -1.2642 H   0  0  0  0  0  0  0  0  0  0  0  0
   -1.2162   -1.2120    1.1595 H   0  0  0  0  0  0  0  0  0  0  0  0
   -1.7973   -1.6189   -0.5704 H   0  0  0  0  0  0  0  0  0  0  0  0
    1.9662   -1.9217   -1.3179 H   0  0  0  0  0  0  0  0  0  0  0  0
    3.0520    0.4311   -1.0805 H   0  0  0  0  0  0  0  0  0  0  0  0
    2.6580    0.0203    0.6619 H   0  0  0  0  0  0  0  0  0  0  0  0
    0.3488    0.3460    1.4357 H   0  0  0  0  0  0  0  0  0  0  0  0
  1  2  2  0
  2  3  1  0
  3  4  1  0
  4  5  1  0
  5  6  2  0
  6  7  1  0
  7  8  1  0
  8  9  1  0
  9  3  1  0
  9  5  1  0
  2 10  1  0
  3 11  1  0
  4 12  1  0
  4 13  1  0
  6 14  1  0
  7 15  1  0
  7 16  1  0
  9 17  1  0
M  END
