
     RDKit          3D

 15 15  0  0  0  0  0  0  0  0999 V2000
   -2.5736    0.8195    0.5568 O   0  0  0  0  0  0  0  0  0  0  0  0
   -1.4507    0.8796    0.0836 C   0  0  0  0  0  0  0  0  0  0  0  0
   -0.5667   -0.2873    0.2472 C   0  0  0  0  0  0  0  0  0  0  0  0
   -1.1718   -1.3037    0.9368 O   0  0  0  0  0  0  0  0  0  0  0  0
   -0.0125   -0.7706   -1.0715 C   0  0  0  0  0  0  0  0  0  0  0  0
    1.2902   -0.3695   -1.1632 O   0  0  0  0  0  0  0  0  0  0  0  0
    1.5397    0.6075   -0.2361 C   0  0  0  0  0  0  0  0  0  0  0  0
    0.6856    0.1956    0.9133 C   0  0  0  0  0  0  0  0  0  0  0  0
    0.8887    0.2183    2.1003 O   0  0  0  0  0  0  0  0  0  0  0  0
   -1.1612    1.7874   -0.4325 H   0  0  0  0  0  0  0  0  0  0  0  0
   -0.5830   -1.7437    1.5801 H   0  0  0  0  0  0  0  0  0  0  0  0
   -0.0146   -1.8987   -1.1147 H   0  0  0  0  0  0  0  0  0  0  0  0
   -0.6615   -0.3569   -1.8713 H   0  0  0  0  0  0  0  0  0  0  0  0
    1.2118    1.5802   -0.6510 H   0  0  0  0  0  0  0  0  0  0  0  0
    2.5795    0.6422    0.1222 H   0  0  0  0  0  0  0  0  0  0  0  0
  1  2  2  0
  2  3  1  0
  3  4  1  0
  3  5  1  0
  5  6  1  0
  6  7  1  0
  7  8  1  0
  8  9  2  0
  8  3  1  0
  2 10  1  0
  4 11  1  0
  5 12  1  0
  5 13  1  0
  7 14  1  0
  7 15  1  0
M  END
