
     RDKit          3D

 16 17  0  0  0  0  0  0  0  0999 V2000
    2.6885    0.4616    1.1372 O   0  0  0  0  0  0  0  0  0  0  0  0
    1.9295   -0.2832    0.5293 C   0  0  0  0  0  0  0  0  0  0  0  0
    0.8510    0.3169   -0.2547 C   0  0  0  0  0  0  0  0  0  0  0  0
   -0.0607   -0.6241   -0.9658 C   0  0  0  0  0  0  0  0  0  0  0  0
   -0.5746   -1.0135    0.3920 C   0  0  0  0  0  0  0  0  0  0  0  0
   -0.4790    0.4852    0.4682 C   0  0  0  0  0  0  0  0  0  0  0  0
   -0.7192    1.2394    1.4312 O   0  0  0  0  0  0  0  0  0  0  0  0
   -1.0701    0.5040   -0.9162 C   0  0  0  0  0  0  0  0  0  0  0  0
    2.0871   -1.3439    0.5972 H   0  0  0  0  0  0  0  0  0  0  0  0
    1.1177    1.1701   -0.9164 H   0  0  0  0  0  0  0  0  0  0  0  0
    0.1271   -1.2199   -1.7449 H   0  0  0  0  0  0  0  0  0  0  0  0
    0.1094   -1.5819    1.0371 H   0  0  0  0  0  0  0  0  0  0  0  0
   -1.5982   -1.4321    0.3002 H   0  0  0  0  0  0  0  0  0  0  0  0
   -1.5271    1.7926    1.4424 H   0  0  0  0  0  0  0  0  0  0  0  0
   -0.7563    1.3191   -1.5759 H   0  0  0  0  0  0  0  0  0  0  0  0
   -2.1252    0.2100   -0.9609 H   0  0  0  0  0  0  0  0  0  0  0  0
  1  2  2  0
  2  3  1  0
  3  4  1  0
  4  5  1  0
  5  6  1  0
  6  7  1  0
  6  8  1  0
  6  3  1  0
  8  4  1  0
  2  9  1  0
  3 10  1  0
  4 11  1  0
  5 12  1  0
  5 13  1  0
  7 14  1  0
  8 15  1  0
  8 16  1  0
M  END
