
     RDKit          3D

 17 17  0  0  0  0  0  0  0  0999 V2000
    3.1470    0.7547   -0.7583 O   0  0  0  0  0  0  0  0  0  0  0  0
    1.9731    0.8473   -1.0374 C   0  0  0  0  0  0  0  0  0  0  0  0
    1.0832   -0.2849   -0.7746 C   0  0  0  0  0  0  0  0  0  0  0  0
    1.7759   -1.3545   -0.2094 O   0  0  0  0  0  0  0  0  0  0  0  0
   -0.0525    0.0504    0.1560 C   0  0  0  0  0  0  0  0  0  0  0  0
   -1.0791   -1.0458    0.2364 C   0  0  0  0  0  0  0  0  0  0  0  0
   -2.2994   -0.3928    0.1143 O   0  0  0  0  0  0  0  0  0  0  0  0
   -1.9798    0.9274    0.4571 C   0  0  0  0  0  0  0  0  0  0  0  0
   -0.8229    1.1207   -0.3146 O   0  0  0  0  0  0  0  0  0  0  0  0
    1.6086    1.7589   -1.4724 H   0  0  0  0  0  0  0  0  0  0  0  0
    0.6253   -0.6688   -1.7230 H   0  0  0  0  0  0  0  0  0  0  0  0
    2.0727   -1.1669    0.7134 H   0  0  0  0  0  0  0  0  0  0  0  0
    0.2635    0.2910    1.1769 H   0  0  0  0  0  0  0  0  0  0  0  0
   -0.9936   -1.6247    1.1742 H   0  0  0  0  0  0  0  0  0  0  0  0
   -0.8746   -1.7465   -0.5994 H   0  0  0  0  0  0  0  0  0  0  0  0
   -1.6790    0.8974    1.5355 H   0  0  0  0  0  0  0  0  0  0  0  0
   -2.7685    1.6372    0.2335 H   0  0  0  0  0  0  0  0  0  0  0  0
  1  2  2  0
  2  3  1  0
  3  4  1  0
  3  5  1  0
  5  6  1  0
  6  7  1  0
  7  8  1  0
  8  9  1  0
  9  5  1  0
  2 10  1  0
  3 11  1  0
  4 12  1  0
  5 13  1  0
  6 14  1  0
  6 15  1  0
  8 16  1  0
  8 17  1  0
M  END
