
     RDKit          3D

 17 17  0  0  0  0  0  0  0  0999 V2000
    3.5508    0.2085    0.5414 O   0  0  0  0  0  0  0  0  0  0  0  0
    2.4672   -0.2813    0.2714 C   0  0  0  0  0  0  0  0  0  0  0  0
    1.3338    0.6178   -0.0649 C   0  0  0  0  0  0  0  0  0  0  0  0
    0.1283   -0.1988   -0.3542 C   0  0  0  0  0  0  0  0  0  0  0  0
    0.2701   -1.0888   -1.4193 O   0  0  0  0  0  0  0  0  0  0  0  0
   -1.1836    0.6087   -0.3098 C   0  0  0  0  0  0  0  0  0  0  0  0
   -2.0370    0.3837   -1.3781 O   0  0  0  0  0  0  0  0  0  0  0  0
   -0.9045   -0.5217    0.6297 C   0  0  0  0  0  0  0  0  0  0  0  0
   -0.8088   -0.1454    1.9700 O   0  0  0  0  0  0  0  0  0  0  0  0
    2.3175   -1.3527    0.2724 H   0  0  0  0  0  0  0  0  0  0  0  0
    1.1822    1.3816    0.7237 H   0  0  0  0  0  0  0  0  0  0  0  0
    1.5730    1.2038   -1.0003 H   0  0  0  0  0  0  0  0  0  0  0  0
   -0.5083   -1.6943   -1.4800 H   0  0  0  0  0  0  0  0  0  0  0  0
   -1.1519    1.6333    0.0716 H   0  0  0  0  0  0  0  0  0  0  0  0
   -2.9663    0.6064   -1.1995 H   0  0  0  0  0  0  0  0  0  0  0  0
   -1.5100   -1.4434    0.4779 H   0  0  0  0  0  0  0  0  0  0  0  0
   -1.7524    0.0827    2.2482 H   0  0  0  0  0  0  0  0  0  0  0  0
  1  2  2  0
  2  3  1  0
  3  4  1  0
  4  5  1  0
  4  6  1  0
  6  7  1  0
  6  8  1  0
  8  9  1  0
  8  4  1  0
  2 10  1  0
  3 11  1  0
  3 12  1  0
  5 13  1  0
  6 14  1  0
  7 15  1  0
  8 16  1  0
  9 17  1  0
M  END
