
     RDKit          3D

 15 17  0  0  0  0  0  0  0  0999 V2000
    2.0600   -1.0264   -1.9413 O   0  0  0  0  0  0  0  0  0  0  0  0
    1.8922   -0.5246   -0.8259 C   0  0  0  0  0  0  0  0  0  0  0  0
    0.5466   -0.2456   -0.3816 C   0  0  0  0  0  0  0  0  0  0  0  0
   -0.5057   -0.5423   -1.2031 O   0  0  0  0  0  0  0  0  0  0  0  0
   -1.6288   -0.0847   -0.4712 C   0  0  0  0  0  0  0  0  0  0  0  0
   -0.9840    0.4106    0.7717 C   0  0  0  0  0  0  0  0  0  0  0  0
    0.1463   -0.5397    1.0109 C   0  0  0  0  0  0  0  0  0  0  0  0
    0.8892    0.5660    1.4166 O   0  0  0  0  0  0  0  0  0  0  0  0
    0.2644    1.0631    0.2924 C   0  0  0  0  0  0  0  0  0  0  0  0
    2.7812   -0.3308   -0.2611 H   0  0  0  0  0  0  0  0  0  0  0  0
   -2.0208    0.7816   -1.0344 H   0  0  0  0  0  0  0  0  0  0  0  0
   -2.3624   -0.8860   -0.3243 H   0  0  0  0  0  0  0  0  0  0  0  0
   -1.5432    0.8050    1.5786 H   0  0  0  0  0  0  0  0  0  0  0  0
    0.0994   -1.4284    1.4845 H   0  0  0  0  0  0  0  0  0  0  0  0
    0.3656    1.9820   -0.1119 H   0  0  0  0  0  0  0  0  0  0  0  0
  1  2  2  0
  2  3  1  0
  3  4  1  0
  4  5  1  0
  5  6  1  0
  6  7  1  0
  7  8  1  0
  8  9  1  0
  7  3  1  0
  9  3  1  0
  9  6  1  0
  2 10  1  0
  5 11  1  0
  5 12  1  0
  6 13  1  0
  7 14  1  0
  9 15  1  0
M  END
