
     RDKit          3D

 12 12  0  0  0  0  0  0  0  0999 V2000
    2.7593    1.0614    0.1620 O   0  0  0  0  0  0  0  0  0  0  0  0
    2.0195    0.0830   -0.1037 C   0  0  0  0  0  0  0  0  0  0  0  0
    0.5660    0.1233   -0.0057 C   0  0  0  0  0  0  0  0  0  0  0  0
   -0.2578   -0.8733   -0.2723 C   0  0  0  0  0  0  0  0  0  0  0  0
   -1.6624   -0.4712   -0.0628 C   0  0  0  0  0  0  0  0  0  0  0  0
   -1.5995    0.8567    0.3531 O   0  0  0  0  0  0  0  0  0  0  0  0
   -0.2776    1.2440    0.3980 C   0  0  0  0  0  0  0  0  0  0  0  0
    0.2184    2.3688    0.7243 O   0  0  0  0  0  0  0  0  0  0  0  0
    2.4800   -0.8319   -0.4199 H   0  0  0  0  0  0  0  0  0  0  0  0
    0.0774   -1.8629   -0.6047 H   0  0  0  0  0  0  0  0  0  0  0  0
   -2.2876   -0.6212   -0.9675 H   0  0  0  0  0  0  0  0  0  0  0  0
   -2.0356   -1.0767    0.7991 H   0  0  0  0  0  0  0  0  0  0  0  0
  1  2  2  0
  2  3  1  0
  3  4  2  0
  4  5  1  0
  5  6  1  0
  6  7  1  0
  7  8  2  0
  7  3  1  0
  2  9  1  0
  4 10  1  0
  5 11  1  0
  5 12  1  0
M  END
