
     RDKit          3D

 16 16  0  0  0  0  0  0  0  0999 V2000
    2.3096   -1.7077    0.4880 O   0  0  0  0  0  0  0  0  0  0  0  0
    2.2939   -0.6966   -0.1628 C   0  0  0  0  0  0  0  0  0  0  0  0
    1.1983    0.2997   -0.1790 C   0  0  0  0  0  0  0  0  0  0  0  0
    0.0566   -0.0523    0.7116 C   0  0  0  0  0  0  0  0  0  0  0  0
   -1.0201    1.0087    0.6422 C   0  0  0  0  0  0  0  0  0  0  0  0
   -1.9246    0.0541   -0.1035 C   0  0  0  0  0  0  0  0  0  0  0  0
   -0.9281   -1.0178    0.1530 C   0  0  0  0  0  0  0  0  0  0  0  0
   -0.8631   -2.2251   -0.0016 O   0  0  0  0  0  0  0  0  0  0  0  0
    3.1493   -0.4721   -0.8046 H   0  0  0  0  0  0  0  0  0  0  0  0
    1.6105    1.2974    0.1448 H   0  0  0  0  0  0  0  0  0  0  0  0
    0.8127    0.4645   -1.2051 H   0  0  0  0  0  0  0  0  0  0  0  0
    0.3582   -0.3395    1.7513 H   0  0  0  0  0  0  0  0  0  0  0  0
   -1.4008    1.3542    1.6234 H   0  0  0  0  0  0  0  0  0  0  0  0
   -0.7632    1.8886    0.0185 H   0  0  0  0  0  0  0  0  0  0  0  0
   -2.0292    0.2752   -1.1722 H   0  0  0  0  0  0  0  0  0  0  0  0
   -2.8602   -0.1314    0.4543 H   0  0  0  0  0  0  0  0  0  0  0  0
  1  2  2  0
  2  3  1  0
  3  4  1  0
  4  5  1  0
  5  6  1  0
  6  7  1  0
  7  8  2  0
  7  4  1  0
  2  9  1  0
  3 10  1  0
  3 11  1  0
  4 12  1  0
  5 13  1  0
  5 14  1  0
  6 15  1  0
  6 16  1  0
M  END
