
     RDKit          3D

 14 14  0  0  0  0  0  0  0  0999 V2000
    3.4305    0.5063    1.6607 O   0  0  0  0  0  0  0  0  0  0  0  0
    3.0505   -0.1224    0.6456 C   0  0  0  0  0  0  0  0  0  0  0  0
    1.6591   -0.3943    0.4555 C   0  0  0  0  0  0  0  0  0  0  0  0
    0.4843   -0.6077    0.2820 C   0  0  0  0  0  0  0  0  0  0  0  0
   -0.9599   -0.8491    0.0533 C   0  0  0  0  0  0  0  0  0  0  0  0
   -1.4392   -0.0855   -1.1711 C   0  0  0  0  0  0  0  0  0  0  0  0
   -1.3577    1.0314   -0.1299 C   0  0  0  0  0  0  0  0  0  0  0  0
   -1.7470    0.0499    0.8122 O   0  0  0  0  0  0  0  0  0  0  0  0
    3.7994   -0.4397   -0.0575 H   0  0  0  0  0  0  0  0  0  0  0  0
   -1.2715   -1.8919    0.1078 H   0  0  0  0  0  0  0  0  0  0  0  0
   -0.7409   -0.0108   -1.9984 H   0  0  0  0  0  0  0  0  0  0  0  0
   -2.4846   -0.3499   -1.3876 H   0  0  0  0  0  0  0  0  0  0  0  0
   -0.3200    1.3450    0.0790 H   0  0  0  0  0  0  0  0  0  0  0  0
   -2.1028    1.8187   -0.2279 H   0  0  0  0  0  0  0  0  0  0  0  0
  1  2  2  0
  2  3  1  0
  3  4  3  0
  4  5  1  0
  5  6  1  0
  6  7  1  0
  7  8  1  0
  8  5  1  0
  2  9  1  0
  5 10  1  0
  6 11  1  0
  6 12  1  0
  7 13  1  0
  7 14  1  0
M  END
