
     RDKit          3D

 15 16  0  0  0  0  0  0  0  0999 V2000
    2.9720    0.5561   -0.7347 O   0  0  0  0  0  0  0  0  0  0  0  0
    2.0392   -0.2305   -0.6276 C   0  0  0  0  0  0  0  0  0  0  0  0
    1.0137    0.1189    0.3733 C   0  0  0  0  0  0  0  0  0  0  0  0
   -0.2949    0.4891   -0.3714 C   0  0  0  0  0  0  0  0  0  0  0  0
   -1.3410    0.8598    0.5448 C   0  0  0  0  0  0  0  0  0  0  0  0
   -1.5262   -0.4395    0.0170 C   0  0  0  0  0  0  0  0  0  0  0  0
   -0.5181   -1.3954   -0.3189 O   0  0  0  0  0  0  0  0  0  0  0  0
   -0.4386   -0.5562   -1.4560 C   0  0  0  0  0  0  0  0  0  0  0  0
   -0.4632   -0.5667   -2.6769 O   0  0  0  0  0  0  0  0  0  0  0  0
    1.9159   -1.1347   -1.1971 H   0  0  0  0  0  0  0  0  0  0  0  0
    1.3071    0.9220    1.0490 H   0  0  0  0  0  0  0  0  0  0  0  0
    0.8089   -0.7872    0.9944 H   0  0  0  0  0  0  0  0  0  0  0  0
   -1.1807    0.9722    1.6528 H   0  0  0  0  0  0  0  0  0  0  0  0
   -1.9983    1.7158    0.1958 H   0  0  0  0  0  0  0  0  0  0  0  0
   -2.2956   -0.5239   -0.8177 H   0  0  0  0  0  0  0  0  0  0  0  0
  1  2  2  0
  2  3  1  0
  3  4  1  0
  4  5  1  0
  5  6  1  0
  6  7  1  0
  7  8  1  0
  8  9  2  0
  6  4  1  0
  8  4  1  0
  2 10  1  0
  3 11  1  0
  3 12  1  0
  5 13  1  0
  5 14  1  0
  6 15  1  0
M  END
