
     RDKit          3D

 15 15  0  0  0  0  0  0  0  0999 V2000
    2.1783    1.6879   -0.5191 O   0  0  0  0  0  0  0  0  0  0  0  0
    2.5382    0.4998   -0.3403 C   0  0  0  0  0  0  0  0  0  0  0  0
    1.5513   -0.5143   -0.0057 C   0  0  0  0  0  0  0  0  0  0  0  0
    2.0087   -1.6973    0.1579 O   0  0  0  0  0  0  0  0  0  0  0  0
    0.1324   -0.2279    0.1393 C   0  0  0  0  0  0  0  0  0  0  0  0
   -0.5318    0.8996    0.0155 C   0  0  0  0  0  0  0  0  0  0  0  0
   -1.9734    0.6776    0.2618 C   0  0  0  0  0  0  0  0  0  0  0  0
   -2.0279   -0.5801    0.8535 O   0  0  0  0  0  0  0  0  0  0  0  0
   -0.8840   -1.2565    0.4811 C   0  0  0  0  0  0  0  0  0  0  0  0
    3.5896    0.2886   -0.4474 H   0  0  0  0  0  0  0  0  0  0  0  0
   -0.1109    1.8544   -0.2282 H   0  0  0  0  0  0  0  0  0  0  0  0
   -2.5865    0.6751   -0.6477 H   0  0  0  0  0  0  0  0  0  0  0  0
   -2.4056    1.3918    0.9869 H   0  0  0  0  0  0  0  0  0  0  0  0
   -0.4810   -1.7795    1.3933 H   0  0  0  0  0  0  0  0  0  0  0  0
   -0.9974   -1.9194   -0.3771 H   0  0  0  0  0  0  0  0  0  0  0  0
  1  2  2  0
  2  3  1  0
  3  4  2  0
  3  5  1  0
  5  6  2  0
  6  7  1  0
  7  8  1  0
  8  9  1  0
  9  5  1  0
  2 10  1  0
  6 11  1  0
  7 12  1  0
  7 13  1  0
  9 14  1  0
  9 15  1  0
M  END
