
     RDKit          3D

 19 19  0  0  0  0  0  0  0  0999 V2000
   -3.0267   -0.3214    0.4951 O   0  0  0  0  0  0  0  0  0  0  0  0
   -2.4185    0.4799   -0.1919 C   0  0  0  0  0  0  0  0  0  0  0  0
   -1.0076    0.2037   -0.6069 C   0  0  0  0  0  0  0  0  0  0  0  0
   -0.1795    1.2873   -0.1157 C   0  0  0  0  0  0  0  0  0  0  0  0
    1.0233    1.4168    0.4068 C   0  0  0  0  0  0  0  0  0  0  0  0
    1.9795    0.3311    0.6651 C   0  0  0  0  0  0  0  0  0  0  0  0
    1.2978   -0.7664    1.1077 O   0  0  0  0  0  0  0  0  0  0  0  0
    0.7974   -1.4464    0.0022 C   0  0  0  0  0  0  0  0  0  0  0  0
   -0.6460   -1.1773   -0.2545 C   0  0  0  0  0  0  0  0  0  0  0  0
   -2.9244    1.3912   -0.4916 H   0  0  0  0  0  0  0  0  0  0  0  0
   -1.0252    0.2830   -1.7351 H   0  0  0  0  0  0  0  0  0  0  0  0
   -0.6843    2.2671   -0.1986 H   0  0  0  0  0  0  0  0  0  0  0  0
    1.3533    2.4227    0.6785 H   0  0  0  0  0  0  0  0  0  0  0  0
    2.6417    0.1537   -0.1982 H   0  0  0  0  0  0  0  0  0  0  0  0
    2.6649    0.6546    1.5013 H   0  0  0  0  0  0  0  0  0  0  0  0
    1.4361   -1.2777   -0.8940 H   0  0  0  0  0  0  0  0  0  0  0  0
    0.8995   -2.5326    0.2357 H   0  0  0  0  0  0  0  0  0  0  0  0
   -0.9667   -1.8799   -1.0581 H   0  0  0  0  0  0  0  0  0  0  0  0
   -1.2145   -1.4894    0.6523 H   0  0  0  0  0  0  0  0  0  0  0  0
  1  2  2  0
  2  3  1  0
  3  4  1  0
  4  5  2  0
  5  6  1  0
  6  7  1  0
  7  8  1  0
  8  9  1  0
  9  3  1  0
  2 10  1  0
  3 11  1  0
  4 12  1  0
  5 13  1  0
  6 14  1  0
  6 15  1  0
  8 16  1  0
  8 17  1  0
  9 18  1  0
  9 19  1  0
M  END
