
     RDKit          3D

 17 17  0  0  0  0  0  0  0  0999 V2000
   -0.3591    2.1593    1.3426 O   0  0  0  0  0  0  0  0  0  0  0  0
   -0.3084    0.9611    1.1271 C   0  0  0  0  0  0  0  0  0  0  0  0
   -0.1372    0.3462   -0.1874 C   0  0  0  0  0  0  0  0  0  0  0  0
   -0.0426    1.3756   -1.1483 O   0  0  0  0  0  0  0  0  0  0  0  0
   -1.4364   -0.3927   -0.5286 C   0  0  0  0  0  0  0  0  0  0  0  0
   -2.5139    0.4623   -0.4519 O   0  0  0  0  0  0  0  0  0  0  0  0
    1.0588   -0.5176   -0.3415 C   0  0  0  0  0  0  0  0  0  0  0  0
    2.1642   -0.5734    0.6177 C   0  0  0  0  0  0  0  0  0  0  0  0
    1.2698   -1.6257    0.4574 O   0  0  0  0  0  0  0  0  0  0  0  0
   -0.4011    0.3286    2.0036 H   0  0  0  0  0  0  0  0  0  0  0  0
    0.1825    0.9172   -2.0132 H   0  0  0  0  0  0  0  0  0  0  0  0
   -1.3916   -0.8089   -1.5466 H   0  0  0  0  0  0  0  0  0  0  0  0
   -1.5117   -1.2350    0.1711 H   0  0  0  0  0  0  0  0  0  0  0  0
   -3.2709    0.1052    0.0730 H   0  0  0  0  0  0  0  0  0  0  0  0
    1.3513   -0.6937   -1.4191 H   0  0  0  0  0  0  0  0  0  0  0  0
    2.1357   -0.1051    1.6122 H   0  0  0  0  0  0  0  0  0  0  0  0
    3.2106   -0.7035    0.2319 H   0  0  0  0  0  0  0  0  0  0  0  0
  1  2  2  0
  2  3  1  0
  3  4  1  0
  3  5  1  0
  5  6  1  0
  3  7  1  0
  7  8  1  0
  8  9  1  0
  9  7  1  0
  2 10  1  0
  4 11  1  0
  5 12  1  0
  5 13  1  0
  6 14  1  0
  7 15  1  0
  8 16  1  0
  8 17  1  0
M  END
