
     RDKit          3D

 17 19  0  0  0  0  0  0  0  0999 V2000
    2.7520    0.9584    0.0814 O   0  0  0  0  0  0  0  0  0  0  0  0
    2.1198   -0.0764    0.0105 C   0  0  0  0  0  0  0  0  0  0  0  0
    0.6728   -0.0373    0.1852 C   0  0  0  0  0  0  0  0  0  0  0  0
    0.1182    1.0928    0.9796 C   0  0  0  0  0  0  0  0  0  0  0  0
   -1.0958    1.3964    0.5441 C   0  0  0  0  0  0  0  0  0  0  0  0
   -1.4686    0.5020   -0.5795 C   0  0  0  0  0  0  0  0  0  0  0  0
   -1.0780   -0.9470   -0.5246 C   0  0  0  0  0  0  0  0  0  0  0  0
   -0.0164   -1.3492    0.4922 C   0  0  0  0  0  0  0  0  0  0  0  0
   -0.1624    0.0315   -1.0627 C   0  0  0  0  0  0  0  0  0  0  0  0
    2.6260   -1.0024   -0.1783 H   0  0  0  0  0  0  0  0  0  0  0  0
    0.6120    1.6067    1.7955 H   0  0  0  0  0  0  0  0  0  0  0  0
   -1.7046    2.1839    0.9622 H   0  0  0  0  0  0  0  0  0  0  0  0
   -2.1964    0.8113   -1.3242 H   0  0  0  0  0  0  0  0  0  0  0  0
   -1.6333   -1.6985   -1.0689 H   0  0  0  0  0  0  0  0  0  0  0  0
   -0.3527   -1.3659    1.5319 H   0  0  0  0  0  0  0  0  0  0  0  0
    0.5724   -2.2315    0.2018 H   0  0  0  0  0  0  0  0  0  0  0  0
    0.2349    0.1251   -2.0461 H   0  0  0  0  0  0  0  0  0  0  0  0
  1  2  2  0
  2  3  1  0
  3  4  1  0
  4  5  2  0
  5  6  1  0
  6  7  1  0
  7  8  1  0
  7  9  1  0
  8  3  1  0
  9  3  1  0
  9  6  1  0
  2 10  1  0
  4 11  1  0
  5 12  1  0
  6 13  1  0
  7 14  1  0
  8 15  1  0
  8 16  1  0
  9 17  1  0
M  END
