
     RDKit          3D

 19 20  0  0  0  0  0  0  0  0999 V2000
    3.6773   -0.0297    0.1752 O   0  0  0  0  0  0  0  0  0  0  0  0
    2.5016    0.2777   -0.0362 C   0  0  0  0  0  0  0  0  0  0  0  0
    1.4607   -0.7267    0.3241 C   0  0  0  0  0  0  0  0  0  0  0  0
    0.1911   -0.2892    0.0505 C   0  0  0  0  0  0  0  0  0  0  0  0
   -0.4174    0.1161   -1.2308 C   0  0  0  0  0  0  0  0  0  0  0  0
   -1.5483    0.2902   -0.2442 C   0  0  0  0  0  0  0  0  0  0  0  0
   -2.7115    0.6873   -0.4576 O   0  0  0  0  0  0  0  0  0  0  0  0
   -0.5018    0.8990    0.6643 C   0  0  0  0  0  0  0  0  0  0  0  0
   -1.0951   -1.0348    0.3223 C   0  0  0  0  0  0  0  0  0  0  0  0
    2.3090    1.2361   -0.4602 H   0  0  0  0  0  0  0  0  0  0  0  0
    1.7382   -1.6630   -0.1705 H   0  0  0  0  0  0  0  0  0  0  0  0
    1.6157   -0.9194    1.4266 H   0  0  0  0  0  0  0  0  0  0  0  0
   -0.6550   -0.7546   -1.9032 H   0  0  0  0  0  0  0  0  0  0  0  0
   -0.0584    1.0151   -1.7300 H   0  0  0  0  0  0  0  0  0  0  0  0
   -3.1042    1.3135    0.1907 H   0  0  0  0  0  0  0  0  0  0  0  0
   -0.6808    0.7759    1.7453 H   0  0  0  0  0  0  0  0  0  0  0  0
   -0.0830    1.8611    0.3324 H   0  0  0  0  0  0  0  0  0  0  0  0
   -1.3386   -1.2082    1.3786 H   0  0  0  0  0  0  0  0  0  0  0  0
   -1.2994   -1.8464   -0.3774 H   0  0  0  0  0  0  0  0  0  0  0  0
  1  2  2  0
  2  3  1  0
  3  4  1  0
  4  5  1  0
  5  6  1  0
  6  7  1  0
  6  8  1  0
  6  9  1  0
  8  4  1  0
  9  4  1  0
  2 10  1  0
  3 11  1  0
  3 12  1  0
  5 13  1  0
  5 14  1  0
  7 15  1  0
  8 16  1  0
  8 17  1  0
  9 18  1  0
  9 19  1  0
M  END
