
     RDKit          3D

 15 17  0  0  0  0  0  0  0  0999 V2000
    2.9723   -1.2526    0.0327 O   0  0  0  0  0  0  0  0  0  0  0  0
    2.2346   -0.3132    0.1883 C   0  0  0  0  0  0  0  0  0  0  0  0
    0.9957   -0.1808   -0.6021 C   0  0  0  0  0  0  0  0  0  0  0  0
    0.6341   -1.1086   -1.5361 O   0  0  0  0  0  0  0  0  0  0  0  0
   -0.0615   -1.1574   -0.3580 C   0  0  0  0  0  0  0  0  0  0  0  0
   -1.0031   -0.0613    0.0337 C   0  0  0  0  0  0  0  0  0  0  0  0
   -1.5835   -0.1099    1.2653 O   0  0  0  0  0  0  0  0  0  0  0  0
   -1.2629    1.0154   -0.9518 C   0  0  0  0  0  0  0  0  0  0  0  0
    0.0489    0.9410   -0.3021 C   0  0  0  0  0  0  0  0  0  0  0  0
    2.4461    0.4749    0.9132 H   0  0  0  0  0  0  0  0  0  0  0  0
    0.0504   -2.0585    0.2533 H   0  0  0  0  0  0  0  0  0  0  0  0
   -2.5051   -0.5151    1.1910 H   0  0  0  0  0  0  0  0  0  0  0  0
   -1.9431    1.8238   -0.5924 H   0  0  0  0  0  0  0  0  0  0  0  0
   -1.3870    0.7888   -2.0390 H   0  0  0  0  0  0  0  0  0  0  0  0
    0.3642    1.7135    0.4202 H   0  0  0  0  0  0  0  0  0  0  0  0
  1  2  2  0
  2  3  1  0
  3  4  1  0
  4  5  1  0
  5  6  1  0
  6  7  1  0
  6  8  1  0
  8  9  1  0
  5  3  1  0
  9  6  1  0
  9  3  1  0
  2 10  1  0
  5 11  1  0
  7 12  1  0
  8 13  1  0
  8 14  1  0
  9 15  1  0
M  END
