
     RDKit          3D

 17 17  0  0  0  0  0  0  0  0999 V2000
    4.2320    0.3762   -0.0035 O   0  0  0  0  0  0  0  0  0  0  0  0
    3.2299   -0.2279    0.3080 C   0  0  0  0  0  0  0  0  0  0  0  0
    1.9024    0.3198    0.0191 C   0  0  0  0  0  0  0  0  0  0  0  0
    0.8658   -0.5019    0.4438 O   0  0  0  0  0  0  0  0  0  0  0  0
   -0.3254    0.1114    0.1210 C   0  0  0  0  0  0  0  0  0  0  0  0
   -1.0691   -0.8067   -0.7943 C   0  0  0  0  0  0  0  0  0  0  0  0
   -2.3538   -0.6103   -0.5256 C   0  0  0  0  0  0  0  0  0  0  0  0
   -2.4046    0.4185    0.5440 C   0  0  0  0  0  0  0  0  0  0  0  0
   -1.2001    0.1891    1.2051 O   0  0  0  0  0  0  0  0  0  0  0  0
    3.3257   -1.1801    0.8039 H   0  0  0  0  0  0  0  0  0  0  0  0
    1.7846    1.3586    0.4451 H   0  0  0  0  0  0  0  0  0  0  0  0
    1.7347    0.4698   -1.0875 H   0  0  0  0  0  0  0  0  0  0  0  0
   -0.1465    1.0621   -0.3733 H   0  0  0  0  0  0  0  0  0  0  0  0
   -0.7020   -1.5045   -1.5371 H   0  0  0  0  0  0  0  0  0  0  0  0
   -3.1646   -1.1311   -1.0248 H   0  0  0  0  0  0  0  0  0  0  0  0
   -2.4276    1.4116    0.0469 H   0  0  0  0  0  0  0  0  0  0  0  0
   -3.2815    0.2454    1.1954 H   0  0  0  0  0  0  0  0  0  0  0  0
  1  2  2  0
  2  3  1  0
  3  4  1  0
  4  5  1  0
  5  6  1  0
  6  7  2  0
  7  8  1  0
  8  9  1  0
  9  5  1  0
  2 10  1  0
  3 11  1  0
  3 12  1  0
  5 13  1  0
  6 14  1  0
  7 15  1  0
  8 16  1  0
  8 17  1  0
M  END
