
     RDKit          3D

 17 18  0  0  0  0  0  0  0  0999 V2000
    2.7869   -0.2927   -0.4718 O   0  0  0  0  0  0  0  0  0  0  0  0
    1.8998    0.5247   -0.3842 C   0  0  0  0  0  0  0  0  0  0  0  0
    0.7679    0.3341    0.5027 C   0  0  0  0  0  0  0  0  0  0  0  0
   -0.0325   -0.9309    0.3361 C   0  0  0  0  0  0  0  0  0  0  0  0
    0.3362   -2.1095    0.5303 O   0  0  0  0  0  0  0  0  0  0  0  0
   -1.1202   -0.1740    1.0634 C   0  0  0  0  0  0  0  0  0  0  0  0
   -0.5726    0.8260    0.0541 C   0  0  0  0  0  0  0  0  0  0  0  0
   -0.9649    2.0026   -0.1144 O   0  0  0  0  0  0  0  0  0  0  0  0
   -0.5846   -0.3177   -0.9229 C   0  0  0  0  0  0  0  0  0  0  0  0
    1.9662    1.4127   -0.9873 H   0  0  0  0  0  0  0  0  0  0  0  0
    0.9702    0.4836    1.6016 H   0  0  0  0  0  0  0  0  0  0  0  0
    0.5953   -2.6342   -0.2472 H   0  0  0  0  0  0  0  0  0  0  0  0
   -0.8693    0.1224    2.0898 H   0  0  0  0  0  0  0  0  0  0  0  0
   -2.1349   -0.5276    0.8719 H   0  0  0  0  0  0  0  0  0  0  0  0
   -1.5156    2.1418   -0.9479 H   0  0  0  0  0  0  0  0  0  0  0  0
    0.0887   -0.2425   -1.7767 H   0  0  0  0  0  0  0  0  0  0  0  0
   -1.6166   -0.6191   -1.1976 H   0  0  0  0  0  0  0  0  0  0  0  0
  1  2  2  0
  2  3  1  0
  3  4  1  0
  4  5  1  0
  4  6  1  0
  6  7  1  0
  7  8  1  0
  7  9  1  0
  7  3  1  0
  9  4  1  0
  2 10  1  0
  3 11  1  0
  5 12  1  0
  6 13  1  0
  6 14  1  0
  8 15  1  0
  9 16  1  0
  9 17  1  0
M  END
