
     RDKit          3D

 17 19  0  0  0  0  0  0  0  0999 V2000
   -0.5221    2.4225   -1.3359 O   0  0  0  0  0  0  0  0  0  0  0  0
   -1.0021    1.5988   -0.5735 C   0  0  0  0  0  0  0  0  0  0  0  0
   -0.3069    0.2685   -0.5485 C   0  0  0  0  0  0  0  0  0  0  0  0
   -1.3238   -0.7730   -0.2987 C   0  0  0  0  0  0  0  0  0  0  0  0
   -2.6216   -0.5179    0.1160 O   0  0  0  0  0  0  0  0  0  0  0  0
   -0.2806   -0.6573    0.6667 C   0  0  0  0  0  0  0  0  0  0  0  0
    1.1146   -1.0554    0.1526 C   0  0  0  0  0  0  0  0  0  0  0  0
    2.2640   -0.1767   -0.0709 C   0  0  0  0  0  0  0  0  0  0  0  0
    1.0363    0.4908    0.0410 C   0  0  0  0  0  0  0  0  0  0  0  0
   -1.8481    1.8790   -0.0047 H   0  0  0  0  0  0  0  0  0  0  0  0
   -1.2896   -1.6595   -0.9973 H   0  0  0  0  0  0  0  0  0  0  0  0
   -2.6845   -0.5410    1.1124 H   0  0  0  0  0  0  0  0  0  0  0  0
   -0.3336   -0.1975    1.6673 H   0  0  0  0  0  0  0  0  0  0  0  0
    1.0420   -1.7280   -0.6959 H   0  0  0  0  0  0  0  0  0  0  0  0
    2.8073   -0.0759   -1.0589 H   0  0  0  0  0  0  0  0  0  0  0  0
    3.0327   -0.2318    0.7420 H   0  0  0  0  0  0  0  0  0  0  0  0
    0.9161    0.9544    1.0862 H   0  0  0  0  0  0  0  0  0  0  0  0
  1  2  2  0
  2  3  1  0
  3  4  1  0
  4  5  1  0
  4  6  1  0
  6  7  1  0
  7  8  1  0
  8  9  1  0
  6  3  1  0
  9  7  1  0
  9  3  1  0
  2 10  1  0
  4 11  1  0
  5 12  1  0
  6 13  1  0
  7 14  1  0
  8 15  1  0
  8 16  1  0
  9 17  1  0
M  END
