
     RDKit          3D

 17 17  0  0  0  0  0  0  0  0999 V2000
    3.1238    0.7327    0.8783 O   0  0  0  0  0  0  0  0  0  0  0  0
    1.9965    0.2949    0.7830 C   0  0  0  0  0  0  0  0  0  0  0  0
    1.7066   -0.7248   -0.2299 C   0  0  0  0  0  0  0  0  0  0  0  0
    0.2464   -1.0572   -0.2384 C   0  0  0  0  0  0  0  0  0  0  0  0
   -0.5713    0.1210   -0.6145 C   0  0  0  0  0  0  0  0  0  0  0  0
   -0.4816    1.2123    0.1853 O   0  0  0  0  0  0  0  0  0  0  0  0
   -1.8603    1.2572    0.3865 C   0  0  0  0  0  0  0  0  0  0  0  0
   -2.0169   -0.0440   -0.2525 C   0  0  0  0  0  0  0  0  0  0  0  0
   -2.8006   -0.9354   -0.4785 O   0  0  0  0  0  0  0  0  0  0  0  0
    1.2437    0.6714    1.4517 H   0  0  0  0  0  0  0  0  0  0  0  0
    1.9741   -0.2666   -1.2297 H   0  0  0  0  0  0  0  0  0  0  0  0
    2.3513   -1.6308   -0.1203 H   0  0  0  0  0  0  0  0  0  0  0  0
   -0.0330   -1.4491    0.7877 H   0  0  0  0  0  0  0  0  0  0  0  0
    0.0493   -1.9514   -0.9011 H   0  0  0  0  0  0  0  0  0  0  0  0
   -0.5341    0.3335   -1.7184 H   0  0  0  0  0  0  0  0  0  0  0  0
   -2.1123    1.3018    1.4802 H   0  0  0  0  0  0  0  0  0  0  0  0
   -2.2818    2.1344   -0.1694 H   0  0  0  0  0  0  0  0  0  0  0  0
  1  2  2  0
  2  3  1  0
  3  4  1  0
  4  5  1  0
  5  6  1  0
  6  7  1  0
  7  8  1  0
  8  9  2  0
  8  5  1  0
  2 10  1  0
  3 11  1  0
  3 12  1  0
  4 13  1  0
  4 14  1  0
  5 15  1  0
  7 16  1  0
  7 17  1  0
M  END
