
     RDKit          3D

 17 17  0  0  0  0  0  0  0  0999 V2000
    3.9459    0.2316    0.3468 O   0  0  0  0  0  0  0  0  0  0  0  0
    3.3289    0.6544   -0.6502 C   0  0  0  0  0  0  0  0  0  0  0  0
    1.9560    0.2668   -0.8759 C   0  0  0  0  0  0  0  0  0  0  0  0
    1.2719    0.6533   -1.8577 O   0  0  0  0  0  0  0  0  0  0  0  0
    1.3393   -0.5777    0.0285 O   0  0  0  0  0  0  0  0  0  0  0  0
    0.0087   -1.0169   -0.0909 C   0  0  0  0  0  0  0  0  0  0  0  0
   -0.9395    0.1460   -0.0632 C   0  0  0  0  0  0  0  0  0  0  0  0
   -2.4095   -0.0715   -0.1757 C   0  0  0  0  0  0  0  0  0  0  0  0
   -1.8498    0.2509    1.1557 C   0  0  0  0  0  0  0  0  0  0  0  0
    3.8166    1.3094   -1.3460 H   0  0  0  0  0  0  0  0  0  0  0  0
   -0.1789   -1.6592    0.8203 H   0  0  0  0  0  0  0  0  0  0  0  0
   -0.1621   -1.6037   -1.0185 H   0  0  0  0  0  0  0  0  0  0  0  0
   -0.5709    1.0701   -0.5230 H   0  0  0  0  0  0  0  0  0  0  0  0
   -2.7939   -1.0923   -0.3992 H   0  0  0  0  0  0  0  0  0  0  0  0
   -3.0294    0.7221   -0.6547 H   0  0  0  0  0  0  0  0  0  0  0  0
   -1.7832   -0.5776    1.8825 H   0  0  0  0  0  0  0  0  0  0  0  0
   -1.9501    1.2941    1.5355 H   0  0  0  0  0  0  0  0  0  0  0  0
  1  2  2  0
  2  3  1  0
  3  4  2  0
  3  5  1  0
  5  6  1  0
  6  7  1  0
  7  8  1  0
  8  9  1  0
  9  7  1  0
  2 10  1  0
  6 11  1  0
  6 12  1  0
  7 13  1  0
  8 14  1  0
  8 15  1  0
  9 16  1  0
  9 17  1  0
M  END
