
     RDKit          3D

 16 16  0  0  0  0  0  0  0  0999 V2000
   -2.5221    0.3152   -1.0085 O   0  0  0  0  0  0  0  0  0  0  0  0
   -1.8552   -0.6224   -0.5838 C   0  0  0  0  0  0  0  0  0  0  0  0
   -1.2322   -0.5580    0.7510 C   0  0  0  0  0  0  0  0  0  0  0  0
    0.2189   -0.1682    0.5960 C   0  0  0  0  0  0  0  0  0  0  0  0
    0.5772    1.1165   -0.0573 C   0  0  0  0  0  0  0  0  0  0  0  0
    1.7576    1.7010    0.3834 O   0  0  0  0  0  0  0  0  0  0  0  0
    0.7495   -0.2105   -0.8081 C   0  0  0  0  0  0  0  0  0  0  0  0
    2.0433   -0.6528   -1.0398 O   0  0  0  0  0  0  0  0  0  0  0  0
   -1.7355   -1.4984   -1.2138 H   0  0  0  0  0  0  0  0  0  0  0  0
   -1.7733    0.1219    1.4298 H   0  0  0  0  0  0  0  0  0  0  0  0
   -1.1921   -1.6091    1.1715 H   0  0  0  0  0  0  0  0  0  0  0  0
    0.8919   -0.5560    1.4205 H   0  0  0  0  0  0  0  0  0  0  0  0
   -0.1852    1.7995   -0.4505 H   0  0  0  0  0  0  0  0  0  0  0  0
    1.6826    2.1129    1.2680 H   0  0  0  0  0  0  0  0  0  0  0  0
    0.0490   -0.4121   -1.6504 H   0  0  0  0  0  0  0  0  0  0  0  0
    2.5257   -0.8795   -0.2079 H   0  0  0  0  0  0  0  0  0  0  0  0
  1  2  2  0
  2  3  1  0
  3  4  1  0
  4  5  1  0
  5  6  1  0
  5  7  1  0
  7  8  1  0
  7  4  1  0
  2  9  1  0
  3 10  1  0
  3 11  1  0
  4 12  1  0
  5 13  1  0
  6 14  1  0
  7 15  1  0
  8 16  1  0
M  END
