
     RDKit          3D

 17 17  0  0  0  0  0  0  0  0999 V2000
    1.6934    1.2784    0.9859 O   0  0  0  0  0  0  0  0  0  0  0  0
    2.1397    0.1459    0.7087 C   0  0  0  0  0  0  0  0  0  0  0  0
    1.2732   -0.8491    0.1433 C   0  0  0  0  0  0  0  0  0  0  0  0
    1.7364   -2.0087   -0.1392 O   0  0  0  0  0  0  0  0  0  0  0  0
   -0.1639   -0.6355   -0.1501 C   0  0  0  0  0  0  0  0  0  0  0  0
   -0.8099   -1.7388   -0.6983 O   0  0  0  0  0  0  0  0  0  0  0  0
   -0.9373    0.0686    0.9404 C   0  0  0  0  0  0  0  0  0  0  0  0
   -1.4859    1.0002   -0.1039 C   0  0  0  0  0  0  0  0  0  0  0  0
   -0.3445    0.5992   -1.0088 C   0  0  0  0  0  0  0  0  0  0  0  0
    3.1740   -0.0622    0.9013 H   0  0  0  0  0  0  0  0  0  0  0  0
   -0.1353   -2.2268   -1.2357 H   0  0  0  0  0  0  0  0  0  0  0  0
   -0.3655    0.5071    1.7571 H   0  0  0  0  0  0  0  0  0  0  0  0
   -1.7581   -0.5961    1.3192 H   0  0  0  0  0  0  0  0  0  0  0  0
   -1.3892    2.0889    0.1398 H   0  0  0  0  0  0  0  0  0  0  0  0
   -2.5003    0.7490   -0.4792 H   0  0  0  0  0  0  0  0  0  0  0  0
    0.5116    1.2932   -1.0233 H   0  0  0  0  0  0  0  0  0  0  0  0
   -0.6384    0.3868   -2.0571 H   0  0  0  0  0  0  0  0  0  0  0  0
  1  2  2  0
  2  3  1  0
  3  4  2  0
  3  5  1  0
  5  6  1  0
  5  7  1  0
  7  8  1  0
  8  9  1  0
  9  5  1  0
  2 10  1  0
  6 11  1  0
  7 12  1  0
  7 13  1  0
  8 14  1  0
  8 15  1  0
  9 16  1  0
  9 17  1  0
M  END
