
     RDKit          3D

 19 20  0  0  0  0  0  0  0  0999 V2000
    3.3782   -1.0307    0.7428 O   0  0  0  0  0  0  0  0  0  0  0  0
    2.2081   -0.6974    0.7600 C   0  0  0  0  0  0  0  0  0  0  0  0
    1.7247    0.1472   -0.3549 C   0  0  0  0  0  0  0  0  0  0  0  0
    0.2769    0.5068   -0.2495 C   0  0  0  0  0  0  0  0  0  0  0  0
   -0.7008   -0.6221   -0.2305 C   0  0  0  0  0  0  0  0  0  0  0  0
   -2.1613   -0.4040   -0.1297 C   0  0  0  0  0  0  0  0  0  0  0  0
   -1.4096   -0.9288    1.0691 C   0  0  0  0  0  0  0  0  0  0  0  0
   -0.0889    1.8135   -0.9246 C   0  0  0  0  0  0  0  0  0  0  0  0
   -0.1159    1.6284    0.4665 O   0  0  0  0  0  0  0  0  0  0  0  0
    1.6074   -1.0311    1.5699 H   0  0  0  0  0  0  0  0  0  0  0  0
    2.3822    1.0334   -0.4401 H   0  0  0  0  0  0  0  0  0  0  0  0
    1.8355   -0.4740   -1.2915 H   0  0  0  0  0  0  0  0  0  0  0  0
   -0.4022   -1.5444   -0.7832 H   0  0  0  0  0  0  0  0  0  0  0  0
   -2.8764   -1.0987   -0.6184 H   0  0  0  0  0  0  0  0  0  0  0  0
   -2.5251    0.6402   -0.1291 H   0  0  0  0  0  0  0  0  0  0  0  0
   -1.1844   -0.2482    1.9139 H   0  0  0  0  0  0  0  0  0  0  0  0
   -1.6064   -1.9674    1.3620 H   0  0  0  0  0  0  0  0  0  0  0  0
   -1.0469    1.7955   -1.4792 H   0  0  0  0  0  0  0  0  0  0  0  0
    0.7051    2.4818   -1.2535 H   0  0  0  0  0  0  0  0  0  0  0  0
  1  2  2  0
  2  3  1  0
  3  4  1  0
  4  5  1  0
  5  6  1  0
  6  7  1  0
  4  8  1  0
  8  9  1  0
  9  4  1  0
  7  5  1  0
  2 10  1  0
  3 11  1  0
  3 12  1  0
  5 13  1  0
  6 14  1  0
  6 15  1  0
  7 16  1  0
  7 17  1  0
  8 18  1  0
  8 19  1  0
M  END
