
     RDKit          3D

 19 19  0  0  0  0  0  0  0  0999 V2000
    3.3929   -1.1998    0.2385 O   0  0  0  0  0  0  0  0  0  0  0  0
    2.6401   -0.8079   -0.6190 C   0  0  0  0  0  0  0  0  0  0  0  0
    1.9244    0.4828   -0.3832 C   0  0  0  0  0  0  0  0  0  0  0  0
    0.5094    0.2520    0.0555 C   0  0  0  0  0  0  0  0  0  0  0  0
   -0.1121   -0.9055    0.2356 C   0  0  0  0  0  0  0  0  0  0  0  0
   -1.5195   -0.6807    0.6761 C   0  0  0  0  0  0  0  0  0  0  0  0
   -2.3809   -1.6284    0.1346 O   0  0  0  0  0  0  0  0  0  0  0  0
   -1.7745    0.7101    0.0742 C   0  0  0  0  0  0  0  0  0  0  0  0
   -0.4316    1.3643    0.3616 C   0  0  0  0  0  0  0  0  0  0  0  0
    2.4536   -1.3295   -1.5374 H   0  0  0  0  0  0  0  0  0  0  0  0
    1.8474    1.0892   -1.3167 H   0  0  0  0  0  0  0  0  0  0  0  0
    2.4552    1.0462    0.3787 H   0  0  0  0  0  0  0  0  0  0  0  0
    0.3227   -1.8828    0.0895 H   0  0  0  0  0  0  0  0  0  0  0  0
   -1.6443   -0.6103    1.7530 H   0  0  0  0  0  0  0  0  0  0  0  0
   -2.4568   -1.5344   -0.8516 H   0  0  0  0  0  0  0  0  0  0  0  0
   -2.6048    1.2142    0.5741 H   0  0  0  0  0  0  0  0  0  0  0  0
   -1.9452    0.5782   -1.0281 H   0  0  0  0  0  0  0  0  0  0  0  0
   -0.2491    2.2468   -0.2858 H   0  0  0  0  0  0  0  0  0  0  0  0
   -0.4270    1.5956    1.4504 H   0  0  0  0  0  0  0  0  0  0  0  0
  1  2  2  0
  2  3  1  0
  3  4  1  0
  4  5  2  0
  5  6  1  0
  6  7  1  0
  6  8  1  0
  8  9  1  0
  9  4  1  0
  2 10  1  0
  3 11  1  0
  3 12  1  0
  5 13  1  0
  6 14  1  0
  7 15  1  0
  8 16  1  0
  8 17  1  0
  9 18  1  0
  9 19  1  0
M  END
