
     RDKit          3D

 16 16  0  0  0  0  0  0  0  0999 V2000
   -1.8467    1.0866    1.0715 O   0  0  0  0  0  0  0  0  0  0  0  0
   -0.8432    1.4604    0.5026 C   0  0  0  0  0  0  0  0  0  0  0  0
   -0.2074    0.6961   -0.5778 C   0  0  0  0  0  0  0  0  0  0  0  0
   -1.0545   -0.5591   -0.8311 C   0  0  0  0  0  0  0  0  0  0  0  0
   -0.6651   -1.3657    0.3766 C   0  0  0  0  0  0  0  0  0  0  0  0
    0.5592   -1.0216    0.7611 C   0  0  0  0  0  0  0  0  0  0  0  0
    1.0746    0.0212   -0.1409 C   0  0  0  0  0  0  0  0  0  0  0  0
    1.9762    0.8818    0.4383 O   0  0  0  0  0  0  0  0  0  0  0  0
   -0.4074    2.3965    0.8120 H   0  0  0  0  0  0  0  0  0  0  0  0
   -0.0573    1.2760   -1.5070 H   0  0  0  0  0  0  0  0  0  0  0  0
   -2.1183   -0.3411   -0.8682 H   0  0  0  0  0  0  0  0  0  0  0  0
   -0.6651   -1.0025   -1.7582 H   0  0  0  0  0  0  0  0  0  0  0  0
   -1.2556   -2.1097    0.8760 H   0  0  0  0  0  0  0  0  0  0  0  0
    1.1393   -1.4151    1.6029 H   0  0  0  0  0  0  0  0  0  0  0  0
    1.4804   -0.4955   -1.0446 H   0  0  0  0  0  0  0  0  0  0  0  0
    2.8911    0.4919    0.2867 H   0  0  0  0  0  0  0  0  0  0  0  0
  1  2  2  0
  2  3  1  0
  3  4  1  0
  4  5  1  0
  5  6  2  0
  6  7  1  0
  7  8  1  0
  7  3  1  0
  2  9  1  0
  3 10  1  0
  4 11  1  0
  4 12  1  0
  5 13  1  0
  6 14  1  0
  7 15  1  0
  8 16  1  0
M  END
