
     RDKit          3D

 17 17  0  0  0  0  0  0  0  0999 V2000
    3.4094   -0.7677    0.2865 O   0  0  0  0  0  0  0  0  0  0  0  0
    2.5826   -0.0123   -0.2661 C   0  0  0  0  0  0  0  0  0  0  0  0
    1.1544   -0.0577    0.0137 C   0  0  0  0  0  0  0  0  0  0  0  0
    0.3325    0.7691   -0.6051 C   0  0  0  0  0  0  0  0  0  0  0  0
   -1.1254    0.6992   -0.2979 C   0  0  0  0  0  0  0  0  0  0  0  0
   -1.8860    1.1439   -1.3852 O   0  0  0  0  0  0  0  0  0  0  0  0
   -1.5651   -0.6428    0.1857 C   0  0  0  0  0  0  0  0  0  0  0  0
   -0.5725   -1.5374    0.4564 O   0  0  0  0  0  0  0  0  0  0  0  0
    0.5794   -1.0179    0.9868 C   0  0  0  0  0  0  0  0  0  0  0  0
    2.9666    0.6977   -0.9792 H   0  0  0  0  0  0  0  0  0  0  0  0
    0.7589    1.4553   -1.3037 H   0  0  0  0  0  0  0  0  0  0  0  0
   -1.3362    1.4316    0.5287 H   0  0  0  0  0  0  0  0  0  0  0  0
   -2.5750    1.8052   -1.1222 H   0  0  0  0  0  0  0  0  0  0  0  0
   -2.2341   -0.5778    1.0620 H   0  0  0  0  0  0  0  0  0  0  0  0
   -2.2015   -1.0899   -0.6337 H   0  0  0  0  0  0  0  0  0  0  0  0
    1.2938   -1.8419    1.1439 H   0  0  0  0  0  0  0  0  0  0  0  0
    0.4180   -0.4566    1.9295 H   0  0  0  0  0  0  0  0  0  0  0  0
  1  2  2  0
  2  3  1  0
  3  4  2  0
  4  5  1  0
  5  6  1  0
  5  7  1  0
  7  8  1  0
  8  9  1  0
  9  3  1  0
  2 10  1  0
  4 11  1  0
  5 12  1  0
  6 13  1  0
  7 14  1  0
  7 15  1  0
  9 16  1  0
  9 17  1  0
M  END
