
     RDKit          3D

 15 16  0  0  0  0  0  0  0  0999 V2000
    1.9053    1.6741   -1.0856 O   0  0  0  0  0  0  0  0  0  0  0  0
    0.9128    1.2983   -0.4900 C   0  0  0  0  0  0  0  0  0  0  0  0
    0.6616   -0.1494   -0.4106 C   0  0  0  0  0  0  0  0  0  0  0  0
    1.5936   -0.9368   -1.0296 O   0  0  0  0  0  0  0  0  0  0  0  0
    0.1634   -0.6664    0.9005 C   0  0  0  0  0  0  0  0  0  0  0  0
   -0.9931    0.2440    1.2422 C   0  0  0  0  0  0  0  0  0  0  0  0
   -1.6147    0.2893    0.0662 C   0  0  0  0  0  0  0  0  0  0  0  0
   -0.7365   -0.5898   -0.7617 C   0  0  0  0  0  0  0  0  0  0  0  0
   -0.5213   -1.6485    0.1456 O   0  0  0  0  0  0  0  0  0  0  0  0
    0.2643    2.0278   -0.0496 H   0  0  0  0  0  0  0  0  0  0  0  0
    2.2577   -1.2471   -0.3534 H   0  0  0  0  0  0  0  0  0  0  0  0
    0.8127   -0.9741    1.6667 H   0  0  0  0  0  0  0  0  0  0  0  0
   -1.2041    0.7018    2.1979 H   0  0  0  0  0  0  0  0  0  0  0  0
   -2.5030    0.7901   -0.2827 H   0  0  0  0  0  0  0  0  0  0  0  0
   -0.9985   -0.8133   -1.7557 H   0  0  0  0  0  0  0  0  0  0  0  0
  1  2  2  0
  2  3  1  0
  3  4  1  0
  3  5  1  0
  5  6  1  0
  6  7  2  0
  7  8  1  0
  8  9  1  0
  8  3  1  0
  9  5  1  0
  2 10  1  0
  4 11  1  0
  5 12  1  0
  6 13  1  0
  7 14  1  0
  8 15  1  0
M  END
