
     RDKit          3D

 19 20  0  0  0  0  0  0  0  0999 V2000
    2.4410    1.7262    0.4930 O   0  0  0  0  0  0  0  0  0  0  0  0
    2.7912    0.6443    0.0885 C   0  0  0  0  0  0  0  0  0  0  0  0
    1.7871   -0.2728   -0.5699 C   0  0  0  0  0  0  0  0  0  0  0  0
    0.9890   -0.8817    0.5255 C   0  0  0  0  0  0  0  0  0  0  0  0
    0.3183    0.2132    1.2761 O   0  0  0  0  0  0  0  0  0  0  0  0
   -0.4056   -0.8456    0.7221 C   0  0  0  0  0  0  0  0  0  0  0  0
   -1.4679   -0.5397   -0.2976 C   0  0  0  0  0  0  0  0  0  0  0  0
   -1.5790    0.7108   -1.0265 C   0  0  0  0  0  0  0  0  0  0  0  0
   -2.4530    0.5486    0.1688 C   0  0  0  0  0  0  0  0  0  0  0  0
    3.8245    0.3497    0.2057 H   0  0  0  0  0  0  0  0  0  0  0  0
    1.2166    0.3116   -1.3059 H   0  0  0  0  0  0  0  0  0  0  0  0
    2.3867   -1.0886   -1.0686 H   0  0  0  0  0  0  0  0  0  0  0  0
    1.6227   -1.5213    1.2056 H   0  0  0  0  0  0  0  0  0  0  0  0
   -0.8243   -1.5056    1.5436 H   0  0  0  0  0  0  0  0  0  0  0  0
   -1.9254   -1.4694   -0.7287 H   0  0  0  0  0  0  0  0  0  0  0  0
   -0.8312    1.4993   -0.9825 H   0  0  0  0  0  0  0  0  0  0  0  0
   -2.1343    0.6639   -2.0021 H   0  0  0  0  0  0  0  0  0  0  0  0
   -2.2153    1.1172    1.0658 H   0  0  0  0  0  0  0  0  0  0  0  0
   -3.5412    0.3399    0.0388 H   0  0  0  0  0  0  0  0  0  0  0  0
  1  2  2  0
  2  3  1  0
  3  4  1  0
  4  5  1  0
  5  6  1  0
  6  7  1  0
  7  8  1  0
  8  9  1  0
  6  4  1  0
  9  7  1  0
  2 10  1  0
  3 11  1  0
  3 12  1  0
  4 13  1  0
  6 14  1  0
  7 15  1  0
  8 16  1  0
  8 17  1  0
  9 18  1  0
  9 19  1  0
M  END
