
     RDKit          3D

 19 19  0  0  0  0  0  0  0  0999 V2000
    2.7131    0.9597    1.6758 O   0  0  0  0  0  0  0  0  0  0  0  0
    2.5558    0.2821    0.6779 C   0  0  0  0  0  0  0  0  0  0  0  0
    1.5750    0.6146   -0.3986 C   0  0  0  0  0  0  0  0  0  0  0  0
    0.3741   -0.2229   -0.1709 C   0  0  0  0  0  0  0  0  0  0  0  0
   -0.2991    0.0030    1.1388 C   0  0  0  0  0  0  0  0  0  0  0  0
   -1.5563   -0.4103    0.9914 C   0  0  0  0  0  0  0  0  0  0  0  0
   -1.7767   -0.9196   -0.3982 C   0  0  0  0  0  0  0  0  0  0  0  0
   -0.7846    0.0238   -1.1157 C   0  0  0  0  0  0  0  0  0  0  0  0
   -1.2544    1.3097   -1.0262 O   0  0  0  0  0  0  0  0  0  0  0  0
    3.1603   -0.6232    0.5475 H   0  0  0  0  0  0  0  0  0  0  0  0
    2.0732    0.3108   -1.3626 H   0  0  0  0  0  0  0  0  0  0  0  0
    1.3858    1.7002   -0.4441 H   0  0  0  0  0  0  0  0  0  0  0  0
    0.6265   -1.3080   -0.2052 H   0  0  0  0  0  0  0  0  0  0  0  0
    0.1482    0.4318    2.0437 H   0  0  0  0  0  0  0  0  0  0  0  0
   -2.3148   -0.3829    1.7499 H   0  0  0  0  0  0  0  0  0  0  0  0
   -2.7807   -0.8045   -0.7767 H   0  0  0  0  0  0  0  0  0  0  0  0
   -1.3371   -1.9508   -0.5311 H   0  0  0  0  0  0  0  0  0  0  0  0
   -0.6111   -0.3584   -2.1209 H   0  0  0  0  0  0  0  0  0  0  0  0
   -1.8971    1.3449   -0.2749 H   0  0  0  0  0  0  0  0  0  0  0  0
  1  2  2  0
  2  3  1  0
  3  4  1  0
  4  5  1  0
  5  6  2  0
  6  7  1  0
  7  8  1  0
  8  9  1  0
  8  4  1  0
  2 10  1  0
  3 11  1  0
  3 12  1  0
  4 13  1  0
  5 14  1  0
  6 15  1  0
  7 16  1  0
  7 17  1  0
  8 18  1  0
  9 19  1  0
M  END
