
     RDKit          3D

 17 18  0  0  0  0  0  0  0  0999 V2000
    2.7896    1.0901    0.0730 O   0  0  0  0  0  0  0  0  0  0  0  0
    2.1823    0.0286    0.0447 C   0  0  0  0  0  0  0  0  0  0  0  0
    0.7888    0.0663   -0.4706 C   0  0  0  0  0  0  0  0  0  0  0  0
    0.3537   -1.3116   -0.7747 C   0  0  0  0  0  0  0  0  0  0  0  0
   -0.7956   -1.6136   -0.1958 C   0  0  0  0  0  0  0  0  0  0  0  0
   -1.2453   -0.4358    0.5676 C   0  0  0  0  0  0  0  0  0  0  0  0
   -1.9467    0.4343   -0.2644 O   0  0  0  0  0  0  0  0  0  0  0  0
   -1.1321    1.5457    0.0514 C   0  0  0  0  0  0  0  0  0  0  0  0
   -0.1353    0.5492    0.5899 C   0  0  0  0  0  0  0  0  0  0  0  0
    2.6372   -0.9009    0.3798 H   0  0  0  0  0  0  0  0  0  0  0  0
    0.6973    0.6953   -1.3820 H   0  0  0  0  0  0  0  0  0  0  0  0
    0.9010   -2.0135   -1.4007 H   0  0  0  0  0  0  0  0  0  0  0  0
   -1.3492   -2.5516   -0.2452 H   0  0  0  0  0  0  0  0  0  0  0  0
   -1.6831   -0.6218    1.5565 H   0  0  0  0  0  0  0  0  0  0  0  0
   -1.6428    2.1779    0.7739 H   0  0  0  0  0  0  0  0  0  0  0  0
   -0.7477    2.0706   -0.8546 H   0  0  0  0  0  0  0  0  0  0  0  0
    0.3280    0.7908    1.5513 H   0  0  0  0  0  0  0  0  0  0  0  0
  1  2  2  0
  2  3  1  0
  3  4  1  0
  4  5  2  0
  5  6  1  0
  6  7  1  0
  7  8  1  0
  8  9  1  0
  9  3  1  0
  9  6  1  0
  2 10  1  0
  3 11  1  0
  4 12  1  0
  5 13  1  0
  6 14  1  0
  8 15  1  0
  8 16  1  0
  9 17  1  0
M  END
