
     RDKit          3D

 13 12  0  0  0  0  0  0  0  0999 V2000
    2.9694   -0.5766   -0.4258 O   0  0  0  0  0  0  0  0  0  0  0  0
    2.4483   -0.2566    0.6260 C   0  0  0  0  0  0  0  0  0  0  0  0
    1.2396   -0.8699    1.1908 C   0  0  0  0  0  0  0  0  0  0  0  0
    0.0105   -0.3524    0.5419 C   0  0  0  0  0  0  0  0  0  0  0  0
   -0.9800    0.0744    0.0010 C   0  0  0  0  0  0  0  0  0  0  0  0
   -2.1784    0.6135   -0.6650 C   0  0  0  0  0  0  0  0  0  0  0  0
   -1.8244    1.5096   -1.6799 O   0  0  0  0  0  0  0  0  0  0  0  0
    2.9323    0.5462    1.1711 H   0  0  0  0  0  0  0  0  0  0  0  0
    1.2035   -1.9837    1.0292 H   0  0  0  0  0  0  0  0  0  0  0  0
    1.2167   -0.6885    2.2876 H   0  0  0  0  0  0  0  0  0  0  0  0
   -2.7020   -0.2338   -1.1355 H   0  0  0  0  0  0  0  0  0  0  0  0
   -2.8115    1.1823    0.0464 H   0  0  0  0  0  0  0  0  0  0  0  0
   -1.5241    1.0355   -2.5083 H   0  0  0  0  0  0  0  0  0  0  0  0
  1  2  2  0
  2  3  1  0
  3  4  1  0
  4  5  3  0
  5  6  1  0
  6  7  1  0
  2  8  1  0
  3  9  1  0
  3 10  1  0
  6 11  1  0
  6 12  1  0
  7 13  1  0
M  END
