
     RDKit          3D

 17 18  0  0  0  0  0  0  0  0999 V2000
    3.0723    0.9609   -1.1933 O   0  0  0  0  0  0  0  0  0  0  0  0
    2.5034    0.0775   -0.4874 C   0  0  0  0  0  0  0  0  0  0  0  0
    1.0643    0.0630   -0.2705 C   0  0  0  0  0  0  0  0  0  0  0  0
    0.1630    0.9187   -0.7458 C   0  0  0  0  0  0  0  0  0  0  0  0
   -1.1056    0.3731   -0.1912 C   0  0  0  0  0  0  0  0  0  0  0  0
   -2.2591    0.9691   -0.4069 O   0  0  0  0  0  0  0  0  0  0  0  0
   -0.9279   -1.1081   -0.4157 C   0  0  0  0  0  0  0  0  0  0  0  0
    0.2794   -0.8822    0.5100 C   0  0  0  0  0  0  0  0  0  0  0  0
   -0.6695    0.0747    1.2516 C   0  0  0  0  0  0  0  0  0  0  0  0
    3.1608   -0.6651   -0.0570 H   0  0  0  0  0  0  0  0  0  0  0  0
    0.3060    1.7894   -1.3742 H   0  0  0  0  0  0  0  0  0  0  0  0
   -2.3579    1.7724    0.1784 H   0  0  0  0  0  0  0  0  0  0  0  0
   -1.7261   -1.7155    0.0555 H   0  0  0  0  0  0  0  0  0  0  0  0
   -0.6536   -1.3786   -1.4499 H   0  0  0  0  0  0  0  0  0  0  0  0
    0.6800   -1.6959    1.0252 H   0  0  0  0  0  0  0  0  0  0  0  0
   -0.1036    0.8846    1.7181 H   0  0  0  0  0  0  0  0  0  0  0  0
   -1.4259   -0.4380    1.8530 H   0  0  0  0  0  0  0  0  0  0  0  0
  1  2  2  0
  2  3  1  0
  3  4  2  0
  4  5  1  0
  5  6  1  0
  5  7  1  0
  7  8  1  0
  8  9  1  0
  8  3  1  0
  9  5  1  0
  2 10  1  0
  4 11  1  0
  6 12  1  0
  7 13  1  0
  7 14  1  0
  8 15  1  0
  9 16  1  0
  9 17  1  0
M  END
