
     RDKit          3D

 17 16  0  0  0  0  0  0  0  0999 V2000
    3.8102    0.2889   -1.2975 O   0  0  0  0  0  0  0  0  0  0  0  0
    2.8225   -0.0570   -0.6880 C   0  0  0  0  0  0  0  0  0  0  0  0
    2.3966    0.5984    0.5481 C   0  0  0  0  0  0  0  0  0  0  0  0
    1.2286    0.0544    1.1053 O   0  0  0  0  0  0  0  0  0  0  0  0
    0.0110    0.0057    0.4759 C   0  0  0  0  0  0  0  0  0  0  0  0
   -0.0427    0.4937   -0.6958 O   0  0  0  0  0  0  0  0  0  0  0  0
   -1.2119   -0.5740    1.0829 C   0  0  0  0  0  0  0  0  0  0  0  0
   -2.3898   -0.4730    0.1292 C   0  0  0  0  0  0  0  0  0  0  0  0
   -2.6374    0.8732   -0.1783 O   0  0  0  0  0  0  0  0  0  0  0  0
    2.2507   -0.8780   -1.0863 H   0  0  0  0  0  0  0  0  0  0  0  0
    2.2789    1.7066    0.3627 H   0  0  0  0  0  0  0  0  0  0  0  0
    3.1806    0.5516    1.3597 H   0  0  0  0  0  0  0  0  0  0  0  0
   -1.1040   -1.6358    1.3495 H   0  0  0  0  0  0  0  0  0  0  0  0
   -1.4602   -0.0348    2.0259 H   0  0  0  0  0  0  0  0  0  0  0  0
   -2.1910   -1.0818   -0.7730 H   0  0  0  0  0  0  0  0  0  0  0  0
   -3.3188   -0.8583    0.5897 H   0  0  0  0  0  0  0  0  0  0  0  0
   -3.6232    1.0202   -0.3030 H   0  0  0  0  0  0  0  0  0  0  0  0
  1  2  2  0
  2  3  1  0
  3  4  1  0
  4  5  1  0
  5  6  2  0
  5  7  1  0
  7  8  1  0
  8  9  1  0
  2 10  1  0
  3 11  1  0
  3 12  1  0
  7 13  1  0
  7 14  1  0
  8 15  1  0
  8 16  1  0
  9 17  1  0
M  END
