
     RDKit          3D

 19 19  0  0  0  0  0  0  0  0999 V2000
   -1.7935    2.1177    0.0008 O   0  0  0  0  0  0  0  0  0  0  0  0
   -1.3837    1.1531   -0.6361 C   0  0  0  0  0  0  0  0  0  0  0  0
   -0.4589    0.2373    0.0406 C   0  0  0  0  0  0  0  0  0  0  0  0
   -1.0671   -0.4918    1.2077 C   0  0  0  0  0  0  0  0  0  0  0  0
   -2.1504   -1.2369    0.7056 O   0  0  0  0  0  0  0  0  0  0  0  0
    0.8797    0.8924    0.3140 C   0  0  0  0  0  0  0  0  0  0  0  0
    1.5141   -0.4634   -0.0038 C   0  0  0  0  0  0  0  0  0  0  0  0
    2.6424   -0.4112   -0.7787 O   0  0  0  0  0  0  0  0  0  0  0  0
    0.2855   -0.7186   -0.8877 C   0  0  0  0  0  0  0  0  0  0  0  0
   -1.7013    0.9845   -1.6786 H   0  0  0  0  0  0  0  0  0  0  0  0
   -1.5252    0.2815    1.8785 H   0  0  0  0  0  0  0  0  0  0  0  0
   -0.3426   -1.1144    1.7362 H   0  0  0  0  0  0  0  0  0  0  0  0
   -2.1072   -1.3133   -0.2826 H   0  0  0  0  0  0  0  0  0  0  0  0
    1.1078    1.5929   -0.5219 H   0  0  0  0  0  0  0  0  0  0  0  0
    1.0425    1.2588    1.3213 H   0  0  0  0  0  0  0  0  0  0  0  0
    1.5275   -1.0957    0.8908 H   0  0  0  0  0  0  0  0  0  0  0  0
    3.1510    0.3855   -0.5693 H   0  0  0  0  0  0  0  0  0  0  0  0
    0.3994   -0.2963   -1.9048 H   0  0  0  0  0  0  0  0  0  0  0  0
   -0.0199   -1.7619   -0.8320 H   0  0  0  0  0  0  0  0  0  0  0  0
  1  2  2  0
  2  3  1  0
  3  4  1  0
  4  5  1  0
  3  6  1  0
  6  7  1  0
  7  8  1  0
  7  9  1  0
  9  3  1  0
  2 10  1  0
  4 11  1  0
  4 12  1  0
  5 13  1  0
  6 14  1  0
  6 15  1  0
  7 16  1  0
  8 17  1  0
  9 18  1  0
  9 19  1  0
M  END
