
     RDKit          3D

 19 20  0  0  0  0  0  0  0  0999 V2000
    3.6218   -0.5357   -0.8611 O   0  0  0  0  0  0  0  0  0  0  0  0
    3.0356   -0.0365    0.0680 C   0  0  0  0  0  0  0  0  0  0  0  0
    1.6714    0.5323   -0.0506 C   0  0  0  0  0  0  0  0  0  0  0  0
    0.6513   -0.6156   -0.0449 C   0  0  0  0  0  0  0  0  0  0  0  0
   -0.6466   -0.1607   -0.1528 C   0  0  0  0  0  0  0  0  0  0  0  0
   -1.3698    0.7567    0.7726 C   0  0  0  0  0  0  0  0  0  0  0  0
   -2.2718    0.4805   -0.3843 C   0  0  0  0  0  0  0  0  0  0  0  0
   -1.8914   -0.9533   -0.2802 C   0  0  0  0  0  0  0  0  0  0  0  0
   -1.1376    0.6385   -1.1926 O   0  0  0  0  0  0  0  0  0  0  0  0
    3.5251   -0.0018    1.0314 H   0  0  0  0  0  0  0  0  0  0  0  0
    1.5382    1.0987   -1.0030 H   0  0  0  0  0  0  0  0  0  0  0  0
    1.4647    1.2339    0.7903 H   0  0  0  0  0  0  0  0  0  0  0  0
    0.9584   -1.2915   -0.8710 H   0  0  0  0  0  0  0  0  0  0  0  0
    0.8585   -1.1732    0.8905 H   0  0  0  0  0  0  0  0  0  0  0  0
   -0.9233    1.7726    0.7519 H   0  0  0  0  0  0  0  0  0  0  0  0
   -1.6561    0.3637    1.7537 H   0  0  0  0  0  0  0  0  0  0  0  0
   -3.1809    0.8784   -0.5680 H   0  0  0  0  0  0  0  0  0  0  0  0
   -2.0254   -1.4696   -1.2514 H   0  0  0  0  0  0  0  0  0  0  0  0
   -2.2222   -1.5175    0.6014 H   0  0  0  0  0  0  0  0  0  0  0  0
  1  2  2  0
  2  3  1  0
  3  4  1  0
  4  5  1  0
  5  6  1  0
  6  7  1  0
  7  8  1  0
  7  9  1  0
  8  5  1  0
  9  5  1  0
  2 10  1  0
  3 11  1  0
  3 12  1  0
  4 13  1  0
  4 14  1  0
  6 15  1  0
  6 16  1  0
  7 17  1  0
  8 18  1  0
  8 19  1  0
M  END
