
     RDKit          3D

 17 17  0  0  0  0  0  0  0  0999 V2000
   -1.7332   -0.1651    1.7549 O   0  0  0  0  0  0  0  0  0  0  0  0
   -1.4140    0.7487    1.0288 C   0  0  0  0  0  0  0  0  0  0  0  0
   -0.9126    0.6303   -0.3439 C   0  0  0  0  0  0  0  0  0  0  0  0
    0.3586    1.4105   -0.4519 C   0  0  0  0  0  0  0  0  0  0  0  0
    1.4872    0.8113   -0.1062 C   0  0  0  0  0  0  0  0  0  0  0  0
    1.4945   -0.5678    0.3661 C   0  0  0  0  0  0  0  0  0  0  0  0
    2.5044   -1.0078    0.9877 O   0  0  0  0  0  0  0  0  0  0  0  0
    0.3418   -1.4793    0.1374 C   0  0  0  0  0  0  0  0  0  0  0  0
   -0.6249   -0.7703   -0.7714 C   0  0  0  0  0  0  0  0  0  0  0  0
   -1.5103    1.7523    1.4393 H   0  0  0  0  0  0  0  0  0  0  0  0
   -1.6525    1.0571   -1.0542 H   0  0  0  0  0  0  0  0  0  0  0  0
    0.3213    2.4135   -0.7995 H   0  0  0  0  0  0  0  0  0  0  0  0
    2.4310    1.3716   -0.1799 H   0  0  0  0  0  0  0  0  0  0  0  0
   -0.1079   -1.7125    1.1015 H   0  0  0  0  0  0  0  0  0  0  0  0
    0.6635   -2.4220   -0.3647 H   0  0  0  0  0  0  0  0  0  0  0  0
   -0.1089   -0.7020   -1.7757 H   0  0  0  0  0  0  0  0  0  0  0  0
   -1.5381   -1.3685   -0.9683 H   0  0  0  0  0  0  0  0  0  0  0  0
  1  2  2  0
  2  3  1  0
  3  4  1  0
  4  5  2  0
  5  6  1  0
  6  7  2  0
  6  8  1  0
  8  9  1  0
  9  3  1  0
  2 10  1  0
  3 11  1  0
  4 12  1  0
  5 13  1  0
  8 14  1  0
  8 15  1  0
  9 16  1  0
  9 17  1  0
M  END
