
     RDKit          3D

 17 17  0  0  0  0  0  0  0  0999 V2000
   -1.8399    1.9244   -0.3734 O   0  0  0  0  0  0  0  0  0  0  0  0
   -1.4941    1.2120    0.5428 C   0  0  0  0  0  0  0  0  0  0  0  0
   -0.7379   -0.0249    0.2221 C   0  0  0  0  0  0  0  0  0  0  0  0
   -0.4201   -0.7241    1.3861 O   0  0  0  0  0  0  0  0  0  0  0  0
   -1.5494   -0.9077   -0.6340 C   0  0  0  0  0  0  0  0  0  0  0  0
   -1.8381   -2.0368   -0.2921 O   0  0  0  0  0  0  0  0  0  0  0  0
    0.5456    0.4110   -0.4478 C   0  0  0  0  0  0  0  0  0  0  0  0
    1.5423   -0.5933   -0.9004 C   0  0  0  0  0  0  0  0  0  0  0  0
    1.8232    0.1385    0.3600 C   0  0  0  0  0  0  0  0  0  0  0  0
   -1.7048    1.4264    1.5744 H   0  0  0  0  0  0  0  0  0  0  0  0
   -0.6733   -0.1676    2.1459 H   0  0  0  0  0  0  0  0  0  0  0  0
   -1.8948   -0.5375   -1.5900 H   0  0  0  0  0  0  0  0  0  0  0  0
    0.5266    1.3941   -0.9522 H   0  0  0  0  0  0  0  0  0  0  0  0
    1.2845   -1.6878   -0.8853 H   0  0  0  0  0  0  0  0  0  0  0  0
    2.1069   -0.3129   -1.8139 H   0  0  0  0  0  0  0  0  0  0  0  0
    1.7040   -0.4172    1.3182 H   0  0  0  0  0  0  0  0  0  0  0  0
    2.6196    0.9033    0.3393 H   0  0  0  0  0  0  0  0  0  0  0  0
  1  2  2  0
  2  3  1  0
  3  4  1  0
  3  5  1  0
  5  6  2  0
  3  7  1  0
  7  8  1  0
  8  9  1  0
  9  7  1  0
  2 10  1  0
  4 11  1  0
  5 12  1  0
  7 13  1  0
  8 14  1  0
  8 15  1  0
  9 16  1  0
  9 17  1  0
M  END
