
     RDKit          3D

 19 20  0  0  0  0  0  0  0  0999 V2000
    3.0430    0.4322   -0.3551 O   0  0  0  0  0  0  0  0  0  0  0  0
    2.4744   -0.3642    0.3692 C   0  0  0  0  0  0  0  0  0  0  0  0
    1.0833   -0.1853    0.8665 C   0  0  0  0  0  0  0  0  0  0  0  0
    0.6831    1.2811    0.6994 C   0  0  0  0  0  0  0  0  0  0  0  0
   -0.4137    0.8334   -0.2124 C   0  0  0  0  0  0  0  0  0  0  0  0
   -1.7290    0.8838    0.4779 C   0  0  0  0  0  0  0  0  0  0  0  0
   -2.1213   -0.3340    0.7742 C   0  0  0  0  0  0  0  0  0  0  0  0
   -1.1262   -1.3368    0.3226 C   0  0  0  0  0  0  0  0  0  0  0  0
    0.0595   -0.5810   -0.1583 C   0  0  0  0  0  0  0  0  0  0  0  0
    3.0351   -1.2433    0.6526 H   0  0  0  0  0  0  0  0  0  0  0  0
    0.9019   -0.5711    1.8741 H   0  0  0  0  0  0  0  0  0  0  0  0
    1.4210    1.9103    0.1948 H   0  0  0  0  0  0  0  0  0  0  0  0
    0.3521    1.7300    1.6580 H   0  0  0  0  0  0  0  0  0  0  0  0
   -0.3920    1.2448   -1.2370 H   0  0  0  0  0  0  0  0  0  0  0  0
   -2.2353    1.8167    0.6767 H   0  0  0  0  0  0  0  0  0  0  0  0
   -3.0472   -0.5623    1.2794 H   0  0  0  0  0  0  0  0  0  0  0  0
   -0.9304   -2.1060    1.0650 H   0  0  0  0  0  0  0  0  0  0  0  0
   -1.5707   -1.8580   -0.5754 H   0  0  0  0  0  0  0  0  0  0  0  0
    0.5123   -0.9902   -1.0926 H   0  0  0  0  0  0  0  0  0  0  0  0
  1  2  2  0
  2  3  1  0
  3  4  1  0
  4  5  1  0
  5  6  1  0
  6  7  2  0
  7  8  1  0
  8  9  1  0
  9  3  1  0
  9  5  1  0
  2 10  1  0
  3 11  1  0
  4 12  1  0
  4 13  1  0
  5 14  1  0
  6 15  1  0
  7 16  1  0
  8 17  1  0
  8 18  1  0
  9 19  1  0
M  END
