
     RDKit          3D

 19 18  0  0  0  0  0  0  0  0999 V2000
    5.1705    1.0818   -0.4066 O   0  0  0  0  0  0  0  0  0  0  0  0
    4.3694    0.0969   -0.5307 C   0  0  0  0  0  0  0  0  0  0  0  0
    2.9548    0.2638   -0.3474 C   0  0  0  0  0  0  0  0  0  0  0  0
    1.7716    0.4107   -0.1935 C   0  0  0  0  0  0  0  0  0  0  0  0
    0.3043    0.6183    0.0043 C   0  0  0  0  0  0  0  0  0  0  0  0
   -0.2375   -0.7251    0.3324 C   0  0  0  0  0  0  0  0  0  0  0  0
   -1.7030   -0.6593    0.5892 C   0  0  0  0  0  0  0  0  0  0  0  0
   -2.5708   -0.1803   -0.5103 C   0  0  0  0  0  0  0  0  0  0  0  0
   -2.3324    1.1130   -0.9400 O   0  0  0  0  0  0  0  0  0  0  0  0
    4.8130   -0.8385   -0.7745 H   0  0  0  0  0  0  0  0  0  0  0  0
   -0.1025    1.0108   -0.9565 H   0  0  0  0  0  0  0  0  0  0  0  0
    0.1222    1.3173    0.8397 H   0  0  0  0  0  0  0  0  0  0  0  0
    0.2818   -1.0813    1.2740 H   0  0  0  0  0  0  0  0  0  0  0  0
   -0.0016   -1.4622   -0.4875 H   0  0  0  0  0  0  0  0  0  0  0  0
   -1.9249    0.0018    1.4805 H   0  0  0  0  0  0  0  0  0  0  0  0
   -2.0527   -1.6801    0.9499 H   0  0  0  0  0  0  0  0  0  0  0  0
   -2.6080   -0.8770   -1.3858 H   0  0  0  0  0  0  0  0  0  0  0  0
   -3.6311   -0.1526   -0.1132 H   0  0  0  0  0  0  0  0  0  0  0  0
   -2.6229    1.7419   -0.2096 H   0  0  0  0  0  0  0  0  0  0  0  0
  1  2  2  0
  2  3  1  0
  3  4  3  0
  4  5  1  0
  5  6  1  0
  6  7  1  0
  7  8  1  0
  8  9  1  0
  2 10  1  0
  5 11  1  0
  5 12  1  0
  6 13  1  0
  6 14  1  0
  7 15  1  0
  7 16  1  0
  8 17  1  0
  8 18  1  0
  9 19  1  0
M  END
