
     RDKit          3D

 13 12  0  0  0  0  0  0  0  0999 V2000
    2.4835   -1.0469    0.7199 O   0  0  0  0  0  0  0  0  0  0  0  0
    1.9907   -0.0123    0.2613 C   0  0  0  0  0  0  0  0  0  0  0  0
    0.9532    0.0138   -0.7910 C   0  0  0  0  0  0  0  0  0  0  0  0
   -0.3652    0.3801   -0.2109 C   0  0  0  0  0  0  0  0  0  0  0  0
   -0.6395    1.5735   -0.1895 O   0  0  0  0  0  0  0  0  0  0  0  0
   -1.3575   -0.5734    0.3318 C   0  0  0  0  0  0  0  0  0  0  0  0
   -2.4906    0.1546    0.6946 O   0  0  0  0  0  0  0  0  0  0  0  0
    2.3302    0.9626    0.6504 H   0  0  0  0  0  0  0  0  0  0  0  0
    1.2422    0.8260   -1.5027 H   0  0  0  0  0  0  0  0  0  0  0  0
    0.8969   -0.9735   -1.3304 H   0  0  0  0  0  0  0  0  0  0  0  0
   -1.6694   -1.3527   -0.4230 H   0  0  0  0  0  0  0  0  0  0  0  0
   -1.0094   -1.0599    1.2756 H   0  0  0  0  0  0  0  0  0  0  0  0
   -2.3651    1.1082    0.5141 H   0  0  0  0  0  0  0  0  0  0  0  0
  1  2  2  0
  2  3  1  0
  3  4  1  0
  4  5  2  0
  4  6  1  0
  6  7  1  0
  2  8  1  0
  3  9  1  0
  3 10  1  0
  6 11  1  0
  6 12  1  0
  7 13  1  0
M  END
