
     RDKit          3D

 23 23  0  0  0  0  0  0  0  0999 V2000
    2.6351    0.4953   -1.6149 O   0  0  0  0  0  0  0  0  0  0  0  0
    2.7708   -0.1688   -0.6075 C   0  0  0  0  0  0  0  0  0  0  0  0
    1.9965    0.1526    0.5950 C   0  0  0  0  0  0  0  0  0  0  0  0
    0.5069    0.1910    0.3984 C   0  0  0  0  0  0  0  0  0  0  0  0
    0.0026    1.1833   -0.5951 C   0  0  0  0  0  0  0  0  0  0  0  0
   -1.4976    0.8957   -0.7465 C   0  0  0  0  0  0  0  0  0  0  0  0
   -2.0298    0.1619    0.4664 C   0  0  0  0  0  0  0  0  0  0  0  0
   -1.4327   -1.2265    0.6040 C   0  0  0  0  0  0  0  0  0  0  0  0
   -0.0314   -1.1750   -0.0127 C   0  0  0  0  0  0  0  0  0  0  0  0
    3.4564   -0.9959   -0.5950 H   0  0  0  0  0  0  0  0  0  0  0  0
    2.1786   -0.5821    1.4253 H   0  0  0  0  0  0  0  0  0  0  0  0
    2.3505    1.1414    0.9968 H   0  0  0  0  0  0  0  0  0  0  0  0
    0.0863    0.5124    1.3978 H   0  0  0  0  0  0  0  0  0  0  0  0
    0.1969    2.2338   -0.3397 H   0  0  0  0  0  0  0  0  0  0  0  0
    0.4112    1.0464   -1.6222 H   0  0  0  0  0  0  0  0  0  0  0  0
   -1.6926    0.2333   -1.6234 H   0  0  0  0  0  0  0  0  0  0  0  0
   -2.0472    1.8331   -0.8461 H   0  0  0  0  0  0  0  0  0  0  0  0
   -3.1215    0.0170    0.2777 H   0  0  0  0  0  0  0  0  0  0  0  0
   -1.9545    0.7415    1.3974 H   0  0  0  0  0  0  0  0  0  0  0  0
   -1.2663   -1.5036    1.6782 H   0  0  0  0  0  0  0  0  0  0  0  0
   -2.0302   -1.9832    0.0799 H   0  0  0  0  0  0  0  0  0  0  0  0
    0.6250   -1.9509    0.4123 H   0  0  0  0  0  0  0  0  0  0  0  0
   -0.1129   -1.2528   -1.1261 H   0  0  0  0  0  0  0  0  0  0  0  0
  1  2  2  0
  2  3  1  0
  3  4  1  0
  4  5  1  0
  5  6  1  0
  6  7  1  0
  7  8  1  0
  8  9  1  0
  9  4  1  0
  2 10  1  0
  3 11  1  0
  3 12  1  0
  4 13  1  0
  5 14  1  0
  5 15  1  0
  6 16  1  0
  6 17  1  0
  7 18  1  0
  7 19  1  0
  8 20  1  0
  8 21  1  0
  9 22  1  0
  9 23  1  0
M  END
