
     RDKit          3D

 13 13  0  0  0  0  0  0  0  0999 V2000
    2.3034    0.3630    1.0096 O   0  0  0  0  0  0  0  0  0  0  0  0
    2.2346   -0.2074   -0.0996 C   0  0  0  0  0  0  0  0  0  0  0  0
    0.9827   -0.2018   -0.8188 C   0  0  0  0  0  0  0  0  0  0  0  0
    0.8872   -0.7789   -1.9561 O   0  0  0  0  0  0  0  0  0  0  0  0
   -0.1890    0.4661   -0.2498 C   0  0  0  0  0  0  0  0  0  0  0  0
   -0.9960   -0.3912    0.7325 C   0  0  0  0  0  0  0  0  0  0  0  0
   -2.0816    0.3944    0.1213 C   0  0  0  0  0  0  0  0  0  0  0  0
   -3.1707    0.8501    0.4901 O   0  0  0  0  0  0  0  0  0  0  0  0
   -1.3580    0.4043   -1.0469 O   0  0  0  0  0  0  0  0  0  0  0  0
    3.0761   -0.7065   -0.5445 H   0  0  0  0  0  0  0  0  0  0  0  0
    0.0285    1.4589    0.1720 H   0  0  0  0  0  0  0  0  0  0  0  0
   -0.7777   -0.1996    1.7857 H   0  0  0  0  0  0  0  0  0  0  0  0
   -0.9395   -1.4515    0.4044 H   0  0  0  0  0  0  0  0  0  0  0  0
  1  2  2  0
  2  3  1  0
  3  4  2  0
  3  5  1  0
  5  6  1  0
  6  7  1  0
  7  8  2  0
  7  9  1  0
  9  5  1  0
  2 10  1  0
  5 11  1  0
  6 12  1  0
  6 13  1  0
M  END
