
     RDKit          2D

 17 19  0  0  0  0  0  0  0  0999 V2000
    3.3756    0.6724    0.0000 O   0  0  0  0  0  0  0  0  0  0  0  0
    1.9267    1.0607    0.0000 C   0  0  0  0  0  0  0  0  0  0  0  0
    0.8660    0.0000    0.0000 C   0  0  0  0  0  0  0  0  0  0  0  0
    1.6160   -1.2990    0.0000 C   0  0  0  0  0  0  0  0  0  0  0  0
    0.3170   -2.0490    0.0000 C   0  0  0  0  0  0  0  0  0  0  0  0
   -1.1830   -0.5490    0.0000 C   0  0  0  0  0  0  0  0  0  0  0  0
   -0.4330    0.7500    0.0000 C   0  0  0  0  0  0  0  0  0  0  0  0
   -0.4330   -0.7500    0.0000 C   0  0  0  0  0  0  0  0  0  0  0  0
   -1.8819   -1.1382    0.0000 O   0  0  0  0  0  0  0  0  0  0  0  0
    1.5385    2.5095    0.0000 H   0  0  0  0  0  0  0  0  0  0  0  0
    2.3660   -2.5981    0.0000 H   0  0  0  0  0  0  0  0  0  0  0  0
    2.9151   -0.5490    0.0000 H   0  0  0  0  0  0  0  0  0  0  0  0
   -0.0712   -3.4979    0.0000 H   0  0  0  0  0  0  0  0  0  0  0  0
   -2.4821    0.2010    0.0000 H   0  0  0  0  0  0  0  0  0  0  0  0
   -1.6628   -1.1857    0.0000 H   0  0  0  0  0  0  0  0  0  0  0  0
   -1.1830    2.0490    0.0000 H   0  0  0  0  0  0  0  0  0  0  0  0
   -2.4438   -2.5290    0.0000 H   0  0  0  0  0  0  0  0  0  0  0  0
  1  2  2  0
  2  3  1  0
  3  4  1  0
  4  5  1  0
  5  6  1  0
  6  7  1  0
  7  8  1  0
  8  9  1  0
  7  3  1  0
  8  3  1  0
  8  5  1  0
  2 10  1  0
  4 11  1  0
  4 12  1  0
  5 13  1  0
  6 14  1  0
  6 15  1  0
  7 16  1  0
  9 17  1  0
M  END
