
     RDKit          3D

 19 20  0  0  0  0  0  0  0  0999 V2000
   -2.0826   -1.3347    1.1753 O   0  0  0  0  0  0  0  0  0  0  0  0
   -1.6584   -1.0530    0.0623 C   0  0  0  0  0  0  0  0  0  0  0  0
   -0.4345   -0.3598   -0.2552 C   0  0  0  0  0  0  0  0  0  0  0  0
    0.7292   -1.1643   -0.7634 C   0  0  0  0  0  0  0  0  0  0  0  0
    1.6468   -0.1997   -0.0204 C   0  0  0  0  0  0  0  0  0  0  0  0
    0.4043    0.2687    0.7386 C   0  0  0  0  0  0  0  0  0  0  0  0
    0.4161   -0.0214    2.0379 O   0  0  0  0  0  0  0  0  0  0  0  0
   -0.0890    1.6323    0.3083 C   0  0  0  0  0  0  0  0  0  0  0  0
   -0.6205    0.9771   -0.9613 C   0  0  0  0  0  0  0  0  0  0  0  0
   -2.2977   -1.3741   -0.7678 H   0  0  0  0  0  0  0  0  0  0  0  0
    0.7310   -2.1639   -0.2959 H   0  0  0  0  0  0  0  0  0  0  0  0
    0.8580   -1.1704   -1.8499 H   0  0  0  0  0  0  0  0  0  0  0  0
    2.0448    0.5526   -0.7011 H   0  0  0  0  0  0  0  0  0  0  0  0
    2.3656   -0.6981    0.6570 H   0  0  0  0  0  0  0  0  0  0  0  0
   -0.2743   -0.5543    2.4328 H   0  0  0  0  0  0  0  0  0  0  0  0
    0.7052    2.3629    0.1700 H   0  0  0  0  0  0  0  0  0  0  0  0
   -0.8891    1.9540    1.0162 H   0  0  0  0  0  0  0  0  0  0  0  0
   -1.6569    1.2228   -1.1997 H   0  0  0  0  0  0  0  0  0  0  0  0
    0.1019    1.1235   -1.7837 H   0  0  0  0  0  0  0  0  0  0  0  0
  1  2  2  0
  2  3  1  0
  3  4  1  0
  4  5  1  0
  5  6  1  0
  6  7  1  0
  6  8  1  0
  8  9  1  0
  6  3  1  0
  9  3  1  0
  2 10  1  0
  4 11  1  0
  4 12  1  0
  5 13  1  0
  5 14  1  0
  7 15  1  0
  8 16  1  0
  8 17  1  0
  9 18  1  0
  9 19  1  0
M  END
