
     RDKit          3D

 17 18  0  0  0  0  0  0  0  0999 V2000
    2.4796   -0.9727   -0.9666 O   0  0  0  0  0  0  0  0  0  0  0  0
    1.9788   -0.7545    0.1143 C   0  0  0  0  0  0  0  0  0  0  0  0
    0.9877    0.3319    0.2521 C   0  0  0  0  0  0  0  0  0  0  0  0
    0.7506    0.9863   -0.9214 O   0  0  0  0  0  0  0  0  0  0  0  0
   -0.5392    1.4290   -0.9692 C   0  0  0  0  0  0  0  0  0  0  0  0
   -1.2909    0.8140    0.1948 C   0  0  0  0  0  0  0  0  0  0  0  0
   -0.3287   -0.2327    0.6346 C   0  0  0  0  0  0  0  0  0  0  0  0
   -0.5506   -1.6789    0.3089 C   0  0  0  0  0  0  0  0  0  0  0  0
   -0.5493   -1.1335    1.5984 O   0  0  0  0  0  0  0  0  0  0  0  0
    2.2824   -1.3726    0.9445 H   0  0  0  0  0  0  0  0  0  0  0  0
    1.3174    1.0961    1.0105 H   0  0  0  0  0  0  0  0  0  0  0  0
   -0.6047    2.5447   -0.9588 H   0  0  0  0  0  0  0  0  0  0  0  0
   -1.0491    1.0729   -1.9101 H   0  0  0  0  0  0  0  0  0  0  0  0
   -2.2759    0.4259   -0.0936 H   0  0  0  0  0  0  0  0  0  0  0  0
   -1.3828    1.6216    0.9784 H   0  0  0  0  0  0  0  0  0  0  0  0
   -1.5146   -1.8834   -0.1868 H   0  0  0  0  0  0  0  0  0  0  0  0
    0.2895   -2.2941   -0.0302 H   0  0  0  0  0  0  0  0  0  0  0  0
  1  2  2  0
  2  3  1  0
  3  4  1  0
  4  5  1  0
  5  6  1  0
  6  7  1  0
  7  8  1  0
  8  9  1  0
  7  3  1  0
  9  7  1  0
  2 10  1  0
  3 11  1  0
  5 12  1  0
  5 13  1  0
  6 14  1  0
  6 15  1  0
  8 16  1  0
  8 17  1  0
M  END
