
     RDKit          3D

 16 16  0  0  0  0  0  0  0  0999 V2000
    3.5528    0.6432    0.5216 O   0  0  0  0  0  0  0  0  0  0  0  0
    2.3747    0.6146    0.2131 C   0  0  0  0  0  0  0  0  0  0  0  0
    1.8898   -0.5081   -0.6112 C   0  0  0  0  0  0  0  0  0  0  0  0
    0.5437   -0.4463   -0.9016 O   0  0  0  0  0  0  0  0  0  0  0  0
   -0.2832   -0.4544    0.1939 C   0  0  0  0  0  0  0  0  0  0  0  0
   -1.7171   -0.3836   -0.2667 C   0  0  0  0  0  0  0  0  0  0  0  0
   -2.5215    0.7528    0.3164 C   0  0  0  0  0  0  0  0  0  0  0  0
   -2.1579    0.6933   -1.0094 O   0  0  0  0  0  0  0  0  0  0  0  0
    1.7012    1.3790    0.5267 H   0  0  0  0  0  0  0  0  0  0  0  0
    2.4280   -0.4348   -1.5968 H   0  0  0  0  0  0  0  0  0  0  0  0
    2.1904   -1.4998   -0.1946 H   0  0  0  0  0  0  0  0  0  0  0  0
   -0.0448    0.3902    0.8726 H   0  0  0  0  0  0  0  0  0  0  0  0
   -0.1863   -1.3723    0.8118 H   0  0  0  0  0  0  0  0  0  0  0  0
   -2.2504   -1.3387   -0.4868 H   0  0  0  0  0  0  0  0  0  0  0  0
   -3.5402    0.4815    0.6422 H   0  0  0  0  0  0  0  0  0  0  0  0
   -1.9793    1.4834    0.9689 H   0  0  0  0  0  0  0  0  0  0  0  0
  1  2  2  0
  2  3  1  0
  3  4  1  0
  4  5  1  0
  5  6  1  0
  6  7  1  0
  7  8  1  0
  8  6  1  0
  2  9  1  0
  3 10  1  0
  3 11  1  0
  5 12  1  0
  5 13  1  0
  6 14  1  0
  7 15  1  0
  7 16  1  0
M  END
