
     RDKit          3D

 21 20  0  0  0  0  0  0  0  0999 V2000
   -1.0370   -1.9639    1.6360 O   0  0  0  0  0  0  0  0  0  0  0  0
   -0.4397   -1.9259    0.5795 C   0  0  0  0  0  0  0  0  0  0  0  0
    0.1634   -0.6648    0.0400 C   0  0  0  0  0  0  0  0  0  0  0  0
   -0.9194    0.3753   -0.1763 C   0  0  0  0  0  0  0  0  0  0  0  0
   -1.9619   -0.1412   -1.1668 C   0  0  0  0  0  0  0  0  0  0  0  0
   -2.9087    0.8859   -1.2953 O   0  0  0  0  0  0  0  0  0  0  0  0
    1.2441   -0.1492    0.9597 C   0  0  0  0  0  0  0  0  0  0  0  0
    1.8753    1.1053    0.4618 C   0  0  0  0  0  0  0  0  0  0  0  0
    2.4665    0.9616   -0.7836 O   0  0  0  0  0  0  0  0  0  0  0  0
   -0.3606   -2.8621    0.0334 H   0  0  0  0  0  0  0  0  0  0  0  0
    0.6173   -0.8851   -0.9341 H   0  0  0  0  0  0  0  0  0  0  0  0
   -1.3905    0.7224    0.7547 H   0  0  0  0  0  0  0  0  0  0  0  0
   -0.4384    1.2361   -0.6861 H   0  0  0  0  0  0  0  0  0  0  0  0
   -2.4018   -1.0874   -0.8324 H   0  0  0  0  0  0  0  0  0  0  0  0
   -1.4444   -0.2531   -2.1311 H   0  0  0  0  0  0  0  0  0  0  0  0
   -2.9579    1.3857   -0.4378 H   0  0  0  0  0  0  0  0  0  0  0  0
    0.7177    0.1212    1.9230 H   0  0  0  0  0  0  0  0  0  0  0  0
    1.9655   -0.9365    1.2306 H   0  0  0  0  0  0  0  0  0  0  0  0
    2.6765    1.4755    1.1686 H   0  0  0  0  0  0  0  0  0  0  0  0
    1.1140    1.9024    0.3883 H   0  0  0  0  0  0  0  0  0  0  0  0
    3.4202    0.6979   -0.7322 H   0  0  0  0  0  0  0  0  0  0  0  0
  1  2  2  0
  2  3  1  0
  3  4  1  0
  4  5  1  0
  5  6  1  0
  3  7  1  0
  7  8  1  0
  8  9  1  0
  2 10  1  0
  3 11  1  0
  4 12  1  0
  4 13  1  0
  5 14  1  0
  5 15  1  0
  6 16  1  0
  7 17  1  0
  7 18  1  0
  8 19  1  0
  8 20  1  0
  9 21  1  0
M  END
