
     RDKit          3D

 17 17  0  0  0  0  0  0  0  0999 V2000
    3.2620   -1.2198    0.7912 O   0  0  0  0  0  0  0  0  0  0  0  0
    2.7854   -0.1686    0.2900 C   0  0  0  0  0  0  0  0  0  0  0  0
    1.3641    0.1029    0.3236 C   0  0  0  0  0  0  0  0  0  0  0  0
    0.4139   -0.6479    0.8438 C   0  0  0  0  0  0  0  0  0  0  0  0
   -0.8873    0.0322    0.6443 C   0  0  0  0  0  0  0  0  0  0  0  0
   -1.8923   -0.8682   -0.0541 C   0  0  0  0  0  0  0  0  0  0  0  0
   -3.0413   -0.0821   -0.2555 O   0  0  0  0  0  0  0  0  0  0  0  0
   -0.6450    1.0937   -0.1804 O   0  0  0  0  0  0  0  0  0  0  0  0
    0.7316    1.3106   -0.2427 C   0  0  0  0  0  0  0  0  0  0  0  0
    3.4878    0.5153   -0.1634 H   0  0  0  0  0  0  0  0  0  0  0  0
    0.6077   -1.5955    1.3251 H   0  0  0  0  0  0  0  0  0  0  0  0
   -1.2666    0.3445    1.6180 H   0  0  0  0  0  0  0  0  0  0  0  0
   -1.5308   -1.1445   -1.0639 H   0  0  0  0  0  0  0  0  0  0  0  0
   -2.1019   -1.7818    0.5005 H   0  0  0  0  0  0  0  0  0  0  0  0
   -3.2585    0.4487    0.5651 H   0  0  0  0  0  0  0  0  0  0  0  0
    1.0312    1.4875   -1.2889 H   0  0  0  0  0  0  0  0  0  0  0  0
    0.9400    2.1730    0.4274 H   0  0  0  0  0  0  0  0  0  0  0  0
  1  2  2  0
  2  3  1  0
  3  4  2  0
  4  5  1  0
  5  6  1  0
  6  7  1  0
  5  8  1  0
  8  9  1  0
  9  3  1  0
  2 10  1  0
  4 11  1  0
  5 12  1  0
  6 13  1  0
  6 14  1  0
  7 15  1  0
  9 16  1  0
  9 17  1  0
M  END
