
     RDKit          3D

 19 19  0  0  0  0  0  0  0  0999 V2000
    3.8717   -0.4313    0.0977 O   0  0  0  0  0  0  0  0  0  0  0  0
    2.6805   -0.5148    0.3479 C   0  0  0  0  0  0  0  0  0  0  0  0
    2.0665    0.5910    1.1123 C   0  0  0  0  0  0  0  0  0  0  0  0
    0.7292    0.4267    1.3547 O   0  0  0  0  0  0  0  0  0  0  0  0
   -0.0526    0.3239    0.2317 C   0  0  0  0  0  0  0  0  0  0  0  0
   -1.1495    1.3052    0.1690 C   0  0  0  0  0  0  0  0  0  0  0  0
   -2.3153    0.7246   -0.0993 C   0  0  0  0  0  0  0  0  0  0  0  0
   -2.1431   -0.7391   -0.2522 C   0  0  0  0  0  0  0  0  0  0  0  0
   -0.7622   -1.0021    0.2640 C   0  0  0  0  0  0  0  0  0  0  0  0
    2.1535   -1.3877   -0.0038 H   0  0  0  0  0  0  0  0  0  0  0  0
    2.2480    1.5271    0.5494 H   0  0  0  0  0  0  0  0  0  0  0  0
    2.5913    0.6971    2.0787 H   0  0  0  0  0  0  0  0  0  0  0  0
    0.5749    0.3967   -0.6777 H   0  0  0  0  0  0  0  0  0  0  0  0
   -1.0739    2.3950    0.3172 H   0  0  0  0  0  0  0  0  0  0  0  0
   -3.2783    1.2136   -0.2005 H   0  0  0  0  0  0  0  0  0  0  0  0
   -2.2636   -1.0526   -1.3007 H   0  0  0  0  0  0  0  0  0  0  0  0
   -2.8488   -1.3200    0.4013 H   0  0  0  0  0  0  0  0  0  0  0  0
   -0.2576   -1.6913   -0.4591 H   0  0  0  0  0  0  0  0  0  0  0  0
   -0.7707   -1.4618    1.2817 H   0  0  0  0  0  0  0  0  0  0  0  0
  1  2  2  0
  2  3  1  0
  3  4  1  0
  4  5  1  0
  5  6  1  0
  6  7  2  0
  7  8  1  0
  8  9  1  0
  9  5  1  0
  2 10  1  0
  3 11  1  0
  3 12  1  0
  5 13  1  0
  6 14  1  0
  7 15  1  0
  8 16  1  0
  8 17  1  0
  9 18  1  0
  9 19  1  0
M  END
