
     RDKit          3D

 13 13  0  0  0  0  0  0  0  0999 V2000
    2.7242    0.4949    0.5352 O   0  0  0  0  0  0  0  0  0  0  0  0
    1.8446   -0.3070    0.3197 C   0  0  0  0  0  0  0  0  0  0  0  0
    0.6893   -0.0521   -0.5681 C   0  0  0  0  0  0  0  0  0  0  0  0
   -0.0988    1.1095   -0.1626 C   0  0  0  0  0  0  0  0  0  0  0  0
   -1.2879    0.6942    0.2207 C   0  0  0  0  0  0  0  0  0  0  0  0
   -1.3073   -0.7785    0.0725 C   0  0  0  0  0  0  0  0  0  0  0  0
   -0.1718   -1.1268   -0.6451 O   0  0  0  0  0  0  0  0  0  0  0  0
    1.9020   -1.2729    0.8046 H   0  0  0  0  0  0  0  0  0  0  0  0
    1.0631    0.1476   -1.6149 H   0  0  0  0  0  0  0  0  0  0  0  0
    0.2249    2.1323   -0.1711 H   0  0  0  0  0  0  0  0  0  0  0  0
   -2.1320    1.2759    0.5849 H   0  0  0  0  0  0  0  0  0  0  0  0
   -2.2342   -1.0894   -0.4526 H   0  0  0  0  0  0  0  0  0  0  0  0
   -1.2163   -1.2276    1.0767 H   0  0  0  0  0  0  0  0  0  0  0  0
  1  2  2  0
  2  3  1  0
  3  4  1  0
  4  5  2  0
  5  6  1  0
  6  7  1  0
  7  3  1  0
  2  8  1  0
  3  9  1  0
  4 10  1  0
  5 11  1  0
  6 12  1  0
  6 13  1  0
M  END
