
     RDKit          3D

 16 16  0  0  0  0  0  0  0  0999 V2000
    3.1601   -0.6016   -0.3699 O   0  0  0  0  0  0  0  0  0  0  0  0
    2.4428    0.3387    0.0353 C   0  0  0  0  0  0  0  0  0  0  0  0
    0.9974    0.3096   -0.0746 C   0  0  0  0  0  0  0  0  0  0  0  0
    0.1454    1.2378    0.3158 C   0  0  0  0  0  0  0  0  0  0  0  0
   -1.2454    0.8621    0.0425 C   0  0  0  0  0  0  0  0  0  0  0  0
   -1.1639   -0.6432   -0.1279 C   0  0  0  0  0  0  0  0  0  0  0  0
   -1.1941   -1.1831    1.1598 O   0  0  0  0  0  0  0  0  0  0  0  0
    0.2327   -0.8258   -0.6722 C   0  0  0  0  0  0  0  0  0  0  0  0
    2.9124    1.1968    0.4797 H   0  0  0  0  0  0  0  0  0  0  0  0
    0.4339    2.1699    0.7838 H   0  0  0  0  0  0  0  0  0  0  0  0
   -1.9500    1.1076    0.8651 H   0  0  0  0  0  0  0  0  0  0  0  0
   -1.6518    1.3532   -0.8705 H   0  0  0  0  0  0  0  0  0  0  0  0
   -1.9449   -1.0437   -0.7860 H   0  0  0  0  0  0  0  0  0  0  0  0
   -2.0240   -1.6901    1.3445 H   0  0  0  0  0  0  0  0  0  0  0  0
    0.2508   -0.7815   -1.7799 H   0  0  0  0  0  0  0  0  0  0  0  0
    0.5988   -1.8067   -0.3456 H   0  0  0  0  0  0  0  0  0  0  0  0
  1  2  2  0
  2  3  1  0
  3  4  2  0
  4  5  1  0
  5  6  1  0
  6  7  1  0
  6  8  1  0
  8  3  1  0
  2  9  1  0
  4 10  1  0
  5 11  1  0
  5 12  1  0
  6 13  1  0
  7 14  1  0
  8 15  1  0
  8 16  1  0
M  END
