
     RDKit          3D

 17 17  0  0  0  0  0  0  0  0999 V2000
   -0.9284    2.4146    1.3684 O   0  0  0  0  0  0  0  0  0  0  0  0
   -0.8643    2.2610    0.1704 C   0  0  0  0  0  0  0  0  0  0  0  0
   -0.4056    0.9732   -0.3606 C   0  0  0  0  0  0  0  0  0  0  0  0
   -0.9160   -0.2419    0.4488 C   0  0  0  0  0  0  0  0  0  0  0  0
   -1.5434   -1.2609   -0.3960 C   0  0  0  0  0  0  0  0  0  0  0  0
   -2.5565   -1.8037    0.0021 O   0  0  0  0  0  0  0  0  0  0  0  0
    0.5176    0.0909    0.3793 C   0  0  0  0  0  0  0  0  0  0  0  0
    1.4584   -0.7967   -0.4106 C   0  0  0  0  0  0  0  0  0  0  0  0
    2.2592   -1.5633    0.4150 O   0  0  0  0  0  0  0  0  0  0  0  0
   -1.1386    3.0542   -0.4861 H   0  0  0  0  0  0  0  0  0  0  0  0
   -0.3622    0.8760   -1.4642 H   0  0  0  0  0  0  0  0  0  0  0  0
   -1.4152   -0.0328    1.4064 H   0  0  0  0  0  0  0  0  0  0  0  0
   -1.1704   -1.5729   -1.3606 H   0  0  0  0  0  0  0  0  0  0  0  0
    0.9900    0.5108    1.2903 H   0  0  0  0  0  0  0  0  0  0  0  0
    2.0897   -0.2485   -1.1075 H   0  0  0  0  0  0  0  0  0  0  0  0
    0.8392   -1.5007   -1.0071 H   0  0  0  0  0  0  0  0  0  0  0  0
    3.1466   -1.1594    0.4599 H   0  0  0  0  0  0  0  0  0  0  0  0
  1  2  2  0
  2  3  1  0
  3  4  1  0
  4  5  1  0
  5  6  2  0
  4  7  1  0
  7  8  1  0
  8  9  1  0
  7  3  1  0
  2 10  1  0
  3 11  1  0
  4 12  1  0
  5 13  1  0
  7 14  1  0
  8 15  1  0
  8 16  1  0
  9 17  1  0
M  END
