
     RDKit          3D

 17 18  0  0  0  0  0  0  0  0999 V2000
    3.1525    0.3298   -0.5225 O   0  0  0  0  0  0  0  0  0  0  0  0
    1.9550    0.5340   -0.5046 C   0  0  0  0  0  0  0  0  0  0  0  0
    1.1157   -0.0842    0.5287 C   0  0  0  0  0  0  0  0  0  0  0  0
   -0.0251    0.7933    0.9769 C   0  0  0  0  0  0  0  0  0  0  0  0
   -1.2878    0.2116    0.4327 C   0  0  0  0  0  0  0  0  0  0  0  0
   -1.4437    0.1221   -1.0699 C   0  0  0  0  0  0  0  0  0  0  0  0
   -0.9835   -1.0284   -0.2961 C   0  0  0  0  0  0  0  0  0  0  0  0
    0.4322   -1.3035   -0.0228 C   0  0  0  0  0  0  0  0  0  0  0  0
    1.0314   -2.3546   -0.1971 O   0  0  0  0  0  0  0  0  0  0  0  0
    1.5525    1.1790   -1.2714 H   0  0  0  0  0  0  0  0  0  0  0  0
    1.6934   -0.3485    1.4412 H   0  0  0  0  0  0  0  0  0  0  0  0
   -0.1145    0.8484    2.0805 H   0  0  0  0  0  0  0  0  0  0  0  0
    0.0943    1.8468    0.6286 H   0  0  0  0  0  0  0  0  0  0  0  0
   -2.2079    0.2624    1.0665 H   0  0  0  0  0  0  0  0  0  0  0  0
   -0.7958    0.8047   -1.6248 H   0  0  0  0  0  0  0  0  0  0  0  0
   -2.4920    0.1033   -1.4242 H   0  0  0  0  0  0  0  0  0  0  0  0
   -1.6766   -1.9163   -0.2218 H   0  0  0  0  0  0  0  0  0  0  0  0
  1  2  2  0
  2  3  1  0
  3  4  1  0
  4  5  1  0
  5  6  1  0
  6  7  1  0
  7  8  1  0
  8  9  2  0
  8  3  1  0
  7  5  1  0
  2 10  1  0
  3 11  1  0
  4 12  1  0
  4 13  1  0
  5 14  1  0
  6 15  1  0
  6 16  1  0
  7 17  1  0
M  END
