
     RDKit          3D

 18 18  0  0  0  0  0  0  0  0999 V2000
    3.2604    1.0674   -0.0969 O   0  0  0  0  0  0  0  0  0  0  0  0
    2.5259    0.0883    0.2330 C   0  0  0  0  0  0  0  0  0  0  0  0
    1.0903    0.1174    0.1860 C   0  0  0  0  0  0  0  0  0  0  0  0
    0.4453    1.1764   -0.2076 C   0  0  0  0  0  0  0  0  0  0  0  0
   -1.0519    1.2826   -0.2834 C   0  0  0  0  0  0  0  0  0  0  0  0
   -1.7289   -0.0322   -0.1200 C   0  0  0  0  0  0  0  0  0  0  0  0
   -0.8101   -1.1998   -0.4243 C   0  0  0  0  0  0  0  0  0  0  0  0
    0.3371   -1.0757    0.5902 C   0  0  0  0  0  0  0  0  0  0  0  0
    3.0823   -0.7942    0.5615 H   0  0  0  0  0  0  0  0  0  0  0  0
    1.0644    2.0399   -0.5000 H   0  0  0  0  0  0  0  0  0  0  0  0
   -1.2641    1.7817   -1.2615 H   0  0  0  0  0  0  0  0  0  0  0  0
   -1.3559    2.0121    0.5236 H   0  0  0  0  0  0  0  0  0  0  0  0
   -2.6848   -0.1180   -0.6717 H   0  0  0  0  0  0  0  0  0  0  0  0
   -2.0046   -0.1445    0.9686 H   0  0  0  0  0  0  0  0  0  0  0  0
   -1.2956   -2.1539   -0.2247 H   0  0  0  0  0  0  0  0  0  0  0  0
   -0.4035   -1.1125   -1.4562 H   0  0  0  0  0  0  0  0  0  0  0  0
    0.9411   -2.0046    0.5839 H   0  0  0  0  0  0  0  0  0  0  0  0
   -0.1475   -0.9301    1.5997 H   0  0  0  0  0  0  0  0  0  0  0  0
  1  2  2  0
  2  3  1  0
  3  4  2  0
  4  5  1  0
  5  6  1  0
  6  7  1  0
  7  8  1  0
  8  3  1  0
  2  9  1  0
  4 10  1  0
  5 11  1  0
  5 12  1  0
  6 13  1  0
  6 14  1  0
  7 15  1  0
  7 16  1  0
  8 17  1  0
  8 18  1  0
M  END
