
     RDKit          3D

 17 18  0  0  0  0  0  0  0  0999 V2000
    1.1496    2.4300   -0.7385 O   0  0  0  0  0  0  0  0  0  0  0  0
    0.1916    1.7115   -0.5460 C   0  0  0  0  0  0  0  0  0  0  0  0
    0.4902    0.2558   -0.3029 C   0  0  0  0  0  0  0  0  0  0  0  0
   -0.5945   -0.5585   -0.9121 C   0  0  0  0  0  0  0  0  0  0  0  0
   -1.6964   -0.2783    0.1364 C   0  0  0  0  0  0  0  0  0  0  0  0
   -1.0212    0.4102    1.1826 O   0  0  0  0  0  0  0  0  0  0  0  0
    0.1656   -0.2646    1.1605 C   0  0  0  0  0  0  0  0  0  0  0  0
    1.4572   -0.0068    0.6754 C   0  0  0  0  0  0  0  0  0  0  0  0
    2.3567   -1.0712    0.4312 O   0  0  0  0  0  0  0  0  0  0  0  0
   -0.7866    2.1426   -0.5598 H   0  0  0  0  0  0  0  0  0  0  0  0
   -0.8823   -0.2055   -1.8978 H   0  0  0  0  0  0  0  0  0  0  0  0
   -0.3184   -1.6249   -0.9157 H   0  0  0  0  0  0  0  0  0  0  0  0
   -2.4686    0.3847   -0.2762 H   0  0  0  0  0  0  0  0  0  0  0  0
   -2.0850   -1.2247    0.5552 H   0  0  0  0  0  0  0  0  0  0  0  0
   -0.0796   -1.3710    1.2374 H   0  0  0  0  0  0  0  0  0  0  0  0
    2.0355    0.8440    1.1335 H   0  0  0  0  0  0  0  0  0  0  0  0
    2.0859   -1.5733   -0.3632 H   0  0  0  0  0  0  0  0  0  0  0  0
  1  2  2  0
  2  3  1  0
  3  4  1  0
  4  5  1  0
  5  6  1  0
  6  7  1  0
  7  8  1  0
  8  9  1  0
  7  3  1  0
  8  3  1  0
  2 10  1  0
  4 11  1  0
  4 12  1  0
  5 13  1  0
  5 14  1  0
  7 15  1  0
  8 16  1  0
  9 17  1  0
M  END
