
     RDKit          3D

 17 18  0  0  0  0  0  0  0  0999 V2000
    2.2683   -1.0368    1.3601 O   0  0  0  0  0  0  0  0  0  0  0  0
    1.1282   -0.9105    0.9637 C   0  0  0  0  0  0  0  0  0  0  0  0
    0.8744    0.1395   -0.0575 C   0  0  0  0  0  0  0  0  0  0  0  0
    2.0091    0.8154   -0.3949 O   0  0  0  0  0  0  0  0  0  0  0  0
   -0.2294    1.0228    0.4759 C   0  0  0  0  0  0  0  0  0  0  0  0
   -1.4153    0.0788    0.3506 C   0  0  0  0  0  0  0  0  0  0  0  0
   -1.2454   -0.6857   -0.9035 C   0  0  0  0  0  0  0  0  0  0  0  0
   -0.3462   -1.6990   -1.0615 O   0  0  0  0  0  0  0  0  0  0  0  0
    0.2049   -0.4574   -1.2785 C   0  0  0  0  0  0  0  0  0  0  0  0
    0.3735   -1.5627    1.3732 H   0  0  0  0  0  0  0  0  0  0  0  0
    2.2199    1.5521    0.2155 H   0  0  0  0  0  0  0  0  0  0  0  0
   -0.3240    1.9214   -0.1313 H   0  0  0  0  0  0  0  0  0  0  0  0
   -0.0640    1.2910    1.5473 H   0  0  0  0  0  0  0  0  0  0  0  0
   -1.5040   -0.5276    1.2686 H   0  0  0  0  0  0  0  0  0  0  0  0
   -2.3139    0.7359    0.2441 H   0  0  0  0  0  0  0  0  0  0  0  0
   -2.0165   -0.6215   -1.7017 H   0  0  0  0  0  0  0  0  0  0  0  0
    0.3803   -0.0558   -2.2701 H   0  0  0  0  0  0  0  0  0  0  0  0
  1  2  2  0
  2  3  1  0
  3  4  1  0
  3  5  1  0
  5  6  1  0
  6  7  1  0
  7  8  1  0
  8  9  1  0
  9  3  1  0
  9  7  1  0
  2 10  1  0
  4 11  1  0
  5 12  1  0
  5 13  1  0
  6 14  1  0
  6 15  1  0
  7 16  1  0
  9 17  1  0
M  END
