
     RDKit          3D

 17 18  0  0  0  0  0  0  0  0999 V2000
   -0.3659   -1.2120    2.0368 O   0  0  0  0  0  0  0  0  0  0  0  0
   -0.9530   -1.1989    0.9701 C   0  0  0  0  0  0  0  0  0  0  0  0
   -0.6870   -0.3659   -0.1915 C   0  0  0  0  0  0  0  0  0  0  0  0
   -1.6062   -0.6803   -1.2238 O   0  0  0  0  0  0  0  0  0  0  0  0
   -0.8866    1.1413    0.0490 C   0  0  0  0  0  0  0  0  0  0  0  0
    0.3841    1.7232   -0.2452 O   0  0  0  0  0  0  0  0  0  0  0  0
    1.1899    0.7681    0.3105 C   0  0  0  0  0  0  0  0  0  0  0  0
    1.9642   -0.3061   -0.1336 C   0  0  0  0  0  0  0  0  0  0  0  0
    0.6860   -0.3270   -0.7179 C   0  0  0  0  0  0  0  0  0  0  0  0
   -1.7713   -1.9205    0.9341 H   0  0  0  0  0  0  0  0  0  0  0  0
   -1.8420    0.1141   -1.7533 H   0  0  0  0  0  0  0  0  0  0  0  0
   -1.0112    1.2815    1.1391 H   0  0  0  0  0  0  0  0  0  0  0  0
   -1.6807    1.5746   -0.5441 H   0  0  0  0  0  0  0  0  0  0  0  0
    0.8206    0.6550    1.3779 H   0  0  0  0  0  0  0  0  0  0  0  0
    2.8717   -0.1084   -0.7629 H   0  0  0  0  0  0  0  0  0  0  0  0
    2.2164   -1.1679    0.5550 H   0  0  0  0  0  0  0  0  0  0  0  0
    0.6711    0.0293   -1.8002 H   0  0  0  0  0  0  0  0  0  0  0  0
  1  2  2  0
  2  3  1  0
  3  4  1  0
  3  5  1  0
  5  6  1  0
  6  7  1  0
  7  8  1  0
  8  9  1  0
  9  3  1  0
  9  7  1  0
  2 10  1  0
  4 11  1  0
  5 12  1  0
  5 13  1  0
  7 14  1  0
  8 15  1  0
  8 16  1  0
  9 17  1  0
M  END
