
     RDKit          3D

 17 19  0  0  0  0  0  0  0  0999 V2000
   -1.9789   -1.9003    1.1491 O   0  0  0  0  0  0  0  0  0  0  0  0
   -1.8654   -1.2278    0.1395 C   0  0  0  0  0  0  0  0  0  0  0  0
   -0.7263   -0.3498   -0.0925 C   0  0  0  0  0  0  0  0  0  0  0  0
   -0.9512    0.9992   -0.7737 C   0  0  0  0  0  0  0  0  0  0  0  0
    0.2394    1.6659   -0.7152 O   0  0  0  0  0  0  0  0  0  0  0  0
    1.0429    1.1108    0.2555 C   0  0  0  0  0  0  0  0  0  0  0  0
    1.8325   -0.0535   -0.3648 C   0  0  0  0  0  0  0  0  0  0  0  0
    0.6358   -0.9221   -0.0379 C   0  0  0  0  0  0  0  0  0  0  0  0
    0.2295    0.0568    0.9486 C   0  0  0  0  0  0  0  0  0  0  0  0
   -2.6519   -1.2969   -0.6057 H   0  0  0  0  0  0  0  0  0  0  0  0
   -1.6685    1.5402   -0.0878 H   0  0  0  0  0  0  0  0  0  0  0  0
   -1.3790    0.8858   -1.7813 H   0  0  0  0  0  0  0  0  0  0  0  0
    1.6343    1.7824    0.8722 H   0  0  0  0  0  0  0  0  0  0  0  0
    2.0567    0.0585   -1.4246 H   0  0  0  0  0  0  0  0  0  0  0  0
    2.6796   -0.3439    0.3023 H   0  0  0  0  0  0  0  0  0  0  0  0
    0.7456   -1.9660    0.2182 H   0  0  0  0  0  0  0  0  0  0  0  0
    0.1249   -0.0393    1.9982 H   0  0  0  0  0  0  0  0  0  0  0  0
  1  2  2  0
  2  3  1  0
  3  4  1  0
  4  5  1  0
  5  6  1  0
  6  7  1  0
  7  8  1  0
  8  9  1  0
  8  3  1  0
  9  3  1  0
  9  6  1  0
  2 10  1  0
  4 11  1  0
  4 12  1  0
  6 13  1  0
  7 14  1  0
  7 15  1  0
  8 16  1  0
  9 17  1  0
M  END
