
     RDKit          3D

 19 20  0  0  0  0  0  0  0  0999 V2000
   -1.5644   -2.0336   -1.8149 O   0  0  0  0  0  0  0  0  0  0  0  0
   -1.4469   -1.7120   -0.6238 C   0  0  0  0  0  0  0  0  0  0  0  0
   -0.6501   -0.4629   -0.3291 C   0  0  0  0  0  0  0  0  0  0  0  0
   -1.4705    0.5324    0.4671 C   0  0  0  0  0  0  0  0  0  0  0  0
   -0.7960    1.6779    0.8031 O   0  0  0  0  0  0  0  0  0  0  0  0
    0.5407   -0.2484   -1.0599 C   0  0  0  0  0  0  0  0  0  0  0  0
    1.4455    0.9080   -0.7658 C   0  0  0  0  0  0  0  0  0  0  0  0
    1.6762    0.3006    0.5966 C   0  0  0  0  0  0  0  0  0  0  0  0
    0.6390   -0.7786    0.3850 C   0  0  0  0  0  0  0  0  0  0  0  0
   -1.8903   -2.2963    0.1394 H   0  0  0  0  0  0  0  0  0  0  0  0
   -2.0655    0.0411    1.2429 H   0  0  0  0  0  0  0  0  0  0  0  0
   -2.2710    0.8303   -0.2969 H   0  0  0  0  0  0  0  0  0  0  0  0
   -1.4204    2.3946    1.0507 H   0  0  0  0  0  0  0  0  0  0  0  0
    0.8953   -0.9971   -1.8181 H   0  0  0  0  0  0  0  0  0  0  0  0
    2.2730    0.9191   -1.4672 H   0  0  0  0  0  0  0  0  0  0  0  0
    0.9275    1.9022   -0.7327 H   0  0  0  0  0  0  0  0  0  0  0  0
    2.7072   -0.1635    0.6429 H   0  0  0  0  0  0  0  0  0  0  0  0
    1.5819    0.9776    1.4407 H   0  0  0  0  0  0  0  0  0  0  0  0
    0.8886   -1.7916    0.6105 H   0  0  0  0  0  0  0  0  0  0  0  0
  1  2  2  0
  2  3  1  0
  3  4  1  0
  4  5  1  0
  3  6  1  0
  6  7  1  0
  7  8  1  0
  8  9  1  0
  9  3  1  0
  9  6  1  0
  2 10  1  0
  4 11  1  0
  4 12  1  0
  5 13  1  0
  6 14  1  0
  7 15  1  0
  7 16  1  0
  8 17  1  0
  8 18  1  0
  9 19  1  0
M  END
