
     RDKit          3D

 19 20  0  0  0  0  0  0  0  0999 V2000
   -2.6983   -1.0484    0.8474 O   0  0  0  0  0  0  0  0  0  0  0  0
   -1.7885   -1.2298    0.0388 C   0  0  0  0  0  0  0  0  0  0  0  0
   -0.9296   -0.1171   -0.4151 C   0  0  0  0  0  0  0  0  0  0  0  0
   -1.4180    1.2820   -0.3937 C   0  0  0  0  0  0  0  0  0  0  0  0
   -0.5051    0.8289    0.6699 C   0  0  0  0  0  0  0  0  0  0  0  0
    0.9695    1.0749    0.5197 C   0  0  0  0  0  0  0  0  0  0  0  0
    1.7322   -0.2342    0.3099 C   0  0  0  0  0  0  0  0  0  0  0  0
    1.0857   -1.1013   -0.7293 C   0  0  0  0  0  0  0  0  0  0  0  0
    0.0696   -0.3984   -1.3229 O   0  0  0  0  0  0  0  0  0  0  0  0
   -1.6027   -2.2161   -0.3551 H   0  0  0  0  0  0  0  0  0  0  0  0
   -2.4935    1.4131   -0.2235 H   0  0  0  0  0  0  0  0  0  0  0  0
   -0.9953    1.9915   -1.1272 H   0  0  0  0  0  0  0  0  0  0  0  0
   -0.9032    0.6997    1.6995 H   0  0  0  0  0  0  0  0  0  0  0  0
    1.3576    1.5024    1.4539 H   0  0  0  0  0  0  0  0  0  0  0  0
    1.1133    1.7241   -0.3579 H   0  0  0  0  0  0  0  0  0  0  0  0
    2.7437    0.0443   -0.0791 H   0  0  0  0  0  0  0  0  0  0  0  0
    1.8070   -0.7571    1.2904 H   0  0  0  0  0  0  0  0  0  0  0  0
    0.6614   -2.0307   -0.3013 H   0  0  0  0  0  0  0  0  0  0  0  0
    1.7943   -1.4278   -1.5244 H   0  0  0  0  0  0  0  0  0  0  0  0
  1  2  2  0
  2  3  1  0
  3  4  1  0
  4  5  1  0
  5  6  1  0
  6  7  1  0
  7  8  1  0
  8  9  1  0
  5  3  1  0
  9  3  1  0
  2 10  1  0
  4 11  1  0
  4 12  1  0
  5 13  1  0
  6 14  1  0
  6 15  1  0
  7 16  1  0
  7 17  1  0
  8 18  1  0
  8 19  1  0
M  END
