
     RDKit          3D

 21 21  0  0  0  0  0  0  0  0999 V2000
    3.9699    0.5520    0.3055 O   0  0  0  0  0  0  0  0  0  0  0  0
    3.4311   -0.2861   -0.4153 C   0  0  0  0  0  0  0  0  0  0  0  0
    1.9788   -0.6065   -0.3158 C   0  0  0  0  0  0  0  0  0  0  0  0
    1.3976    0.2693    0.7813 C   0  0  0  0  0  0  0  0  0  0  0  0
    0.0567    0.0748    0.9798 O   0  0  0  0  0  0  0  0  0  0  0  0
   -0.7417    0.3234   -0.0990 C   0  0  0  0  0  0  0  0  0  0  0  0
   -1.9673    1.1573    0.1392 C   0  0  0  0  0  0  0  0  0  0  0  0
   -2.8738    0.0211   -0.2868 C   0  0  0  0  0  0  0  0  0  0  0  0
   -1.6639   -0.8673   -0.3394 C   0  0  0  0  0  0  0  0  0  0  0  0
    4.0337   -0.8074   -1.1458 H   0  0  0  0  0  0  0  0  0  0  0  0
    1.9095   -1.6737   -0.0252 H   0  0  0  0  0  0  0  0  0  0  0  0
    1.4510   -0.4708   -1.2803 H   0  0  0  0  0  0  0  0  0  0  0  0
    1.6912    1.3206    0.6373 H   0  0  0  0  0  0  0  0  0  0  0  0
    1.9145   -0.0600    1.7278 H   0  0  0  0  0  0  0  0  0  0  0  0
   -0.2335    0.6568   -1.0268 H   0  0  0  0  0  0  0  0  0  0  0  0
   -2.1309    1.5001    1.1644 H   0  0  0  0  0  0  0  0  0  0  0  0
   -2.1015    2.0042   -0.5686 H   0  0  0  0  0  0  0  0  0  0  0  0
   -3.3135    0.1182   -1.2962 H   0  0  0  0  0  0  0  0  0  0  0  0
   -3.6399   -0.2638    0.4897 H   0  0  0  0  0  0  0  0  0  0  0  0
   -1.4701   -1.3698   -1.3064 H   0  0  0  0  0  0  0  0  0  0  0  0
   -1.6979   -1.5924    0.5066 H   0  0  0  0  0  0  0  0  0  0  0  0
  1  2  2  0
  2  3  1  0
  3  4  1  0
  4  5  1  0
  5  6  1  0
  6  7  1  0
  7  8  1  0
  8  9  1  0
  9  6  1  0
  2 10  1  0
  3 11  1  0
  3 12  1  0
  4 13  1  0
  4 14  1  0
  6 15  1  0
  7 16  1  0
  7 17  1  0
  8 18  1  0
  8 19  1  0
  9 20  1  0
  9 21  1  0
M  END
