
     RDKit          3D

 17 18  0  0  0  0  0  0  0  0999 V2000
    3.2454    0.6583    0.9032 O   0  0  0  0  0  0  0  0  0  0  0  0
    2.4479    0.8355    0.0099 C   0  0  0  0  0  0  0  0  0  0  0  0
    0.9750    0.6276    0.2005 C   0  0  0  0  0  0  0  0  0  0  0  0
    0.7654   -0.8632    0.3897 C   0  0  0  0  0  0  0  0  0  0  0  0
   -0.6917   -1.0053    0.0413 C   0  0  0  0  0  0  0  0  0  0  0  0
   -1.6585    0.0670    0.3632 C   0  0  0  0  0  0  0  0  0  0  0  0
   -2.9972   -0.2223    0.1987 O   0  0  0  0  0  0  0  0  0  0  0  0
   -0.8872    0.1271   -0.9332 C   0  0  0  0  0  0  0  0  0  0  0  0
    0.2624    0.8853   -0.9396 O   0  0  0  0  0  0  0  0  0  0  0  0
    2.8111    1.1552   -0.9606 H   0  0  0  0  0  0  0  0  0  0  0  0
    0.5981    1.2142    1.0635 H   0  0  0  0  0  0  0  0  0  0  0  0
    1.0357   -1.2257    1.3762 H   0  0  0  0  0  0  0  0  0  0  0  0
    1.3780   -1.3594   -0.4024 H   0  0  0  0  0  0  0  0  0  0  0  0
   -1.0323   -2.0168   -0.2008 H   0  0  0  0  0  0  0  0  0  0  0  0
   -1.4336    0.8243    1.1232 H   0  0  0  0  0  0  0  0  0  0  0  0
   -3.4484    0.4681   -0.3580 H   0  0  0  0  0  0  0  0  0  0  0  0
   -1.3700   -0.1698   -1.8748 H   0  0  0  0  0  0  0  0  0  0  0  0
  1  2  2  0
  2  3  1  0
  3  4  1  0
  4  5  1  0
  5  6  1  0
  6  7  1  0
  6  8  1  0
  8  9  1  0
  9  3  1  0
  8  5  1  0
  2 10  1  0
  3 11  1  0
  4 12  1  0
  4 13  1  0
  5 14  1  0
  6 15  1  0
  7 16  1  0
  8 17  1  0
M  END
