
     RDKit          3D

 18 19  0  0  0  0  0  0  0  0999 V2000
    3.5862   -0.4865   -0.7539 O   0  0  0  0  0  0  0  0  0  0  0  0
    2.6050   -0.2741   -0.0627 C   0  0  0  0  0  0  0  0  0  0  0  0
    1.3294    0.1606   -0.7133 C   0  0  0  0  0  0  0  0  0  0  0  0
    0.2364    0.3752    0.2698 C   0  0  0  0  0  0  0  0  0  0  0  0
   -1.0566    0.8107   -0.2775 C   0  0  0  0  0  0  0  0  0  0  0  0
   -1.3169   -0.5898   -0.6967 C   0  0  0  0  0  0  0  0  0  0  0  0
   -0.6681   -0.7553    0.6237 C   0  0  0  0  0  0  0  0  0  0  0  0
   -1.6297    0.3400    1.0643 C   0  0  0  0  0  0  0  0  0  0  0  0
    2.7102   -0.4138    1.0063 H   0  0  0  0  0  0  0  0  0  0  0  0
    1.5912    1.1359   -1.2179 H   0  0  0  0  0  0  0  0  0  0  0  0
    1.0791   -0.5899   -1.4603 H   0  0  0  0  0  0  0  0  0  0  0  0
    0.5777    0.9811    1.1689 H   0  0  0  0  0  0  0  0  0  0  0  0
   -1.3268    1.6604   -0.7310 H   0  0  0  0  0  0  0  0  0  0  0  0
   -2.4343   -0.7394   -0.7126 H   0  0  0  0  0  0  0  0  0  0  0  0
   -0.7873   -1.0394   -1.5199 H   0  0  0  0  0  0  0  0  0  0  0  0
   -0.4604   -1.5824    1.1423 H   0  0  0  0  0  0  0  0  0  0  0  0
   -1.3351    0.9238    1.9326 H   0  0  0  0  0  0  0  0  0  0  0  0
   -2.6999    0.0829    0.9379 H   0  0  0  0  0  0  0  0  0  0  0  0
  1  2  2  0
  2  3  1  0
  3  4  1  0
  4  5  1  0
  5  6  1  0
  6  7  1  0
  7  8  1  0
  7  4  1  0
  8  5  1  0
  2  9  1  0
  3 10  1  0
  3 11  1  0
  4 12  1  0
  5 13  1  0
  6 14  1  0
  6 15  1  0
  7 16  1  0
  8 17  1  0
  8 18  1  0
M  END
