
     RDKit          3D

 19 21  0  0  0  0  0  0  0  0999 V2000
    2.0409   -0.1191    1.7440 O   0  0  0  0  0  0  0  0  0  0  0  0
    2.2860    0.2345    0.6068 C   0  0  0  0  0  0  0  0  0  0  0  0
    1.2061    0.3464   -0.3747 C   0  0  0  0  0  0  0  0  0  0  0  0
    0.2278    1.4856   -0.0336 C   0  0  0  0  0  0  0  0  0  0  0  0
   -1.0508    0.7068   -0.0341 C   0  0  0  0  0  0  0  0  0  0  0  0
   -0.9153   -0.4064   -1.0401 C   0  0  0  0  0  0  0  0  0  0  0  0
   -1.7187   -1.2374   -0.0772 C   0  0  0  0  0  0  0  0  0  0  0  0
   -0.7504   -0.4834    0.8021 C   0  0  0  0  0  0  0  0  0  0  0  0
    0.2755   -0.8175   -0.2474 C   0  0  0  0  0  0  0  0  0  0  0  0
    3.3185    0.4537    0.3747 H   0  0  0  0  0  0  0  0  0  0  0  0
    1.5600    0.5414   -1.3939 H   0  0  0  0  0  0  0  0  0  0  0  0
    0.4822    1.8200    1.0033 H   0  0  0  0  0  0  0  0  0  0  0  0
    0.2707    2.2836   -0.7714 H   0  0  0  0  0  0  0  0  0  0  0  0
   -1.9868    1.2160    0.0540 H   0  0  0  0  0  0  0  0  0  0  0  0
   -1.0269   -0.3436   -2.0305 H   0  0  0  0  0  0  0  0  0  0  0  0
   -2.7745   -0.9928    0.0315 H   0  0  0  0  0  0  0  0  0  0  0  0
   -1.4439   -2.3114   -0.0959 H   0  0  0  0  0  0  0  0  0  0  0  0
   -0.6527   -0.5613    1.7923 H   0  0  0  0  0  0  0  0  0  0  0  0
    0.6522   -1.8151   -0.3098 H   0  0  0  0  0  0  0  0  0  0  0  0
  1  2  2  0
  2  3  1  0
  3  4  1  0
  4  5  1  0
  5  6  1  0
  6  7  1  0
  7  8  1  0
  8  9  1  0
  9  3  1  0
  8  5  1  0
  9  6  1  0
  2 10  1  0
  3 11  1  0
  4 12  1  0
  4 13  1  0
  5 14  1  0
  6 15  1  0
  7 16  1  0
  7 17  1  0
  8 18  1  0
  9 19  1  0
M  END
