
     RDKit          3D

 17 17  0  0  0  0  0  0  0  0999 V2000
   -3.1143   -1.6418   -0.2818 O   0  0  0  0  0  0  0  0  0  0  0  0
   -2.6623   -0.5830    0.1110 C   0  0  0  0  0  0  0  0  0  0  0  0
   -1.2292   -0.3095    0.0133 C   0  0  0  0  0  0  0  0  0  0  0  0
   -0.4974   -1.3294   -0.5418 O   0  0  0  0  0  0  0  0  0  0  0  0
    0.8446   -1.1422   -0.4602 C   0  0  0  0  0  0  0  0  0  0  0  0
    1.3090    0.2323   -0.1701 C   0  0  0  0  0  0  0  0  0  0  0  0
    2.3103    0.5777   -1.1066 O   0  0  0  0  0  0  0  0  0  0  0  0
    0.2799    1.2954   -0.2022 C   0  0  0  0  0  0  0  0  0  0  0  0
   -0.9488    0.8489   -0.7368 O   0  0  0  0  0  0  0  0  0  0  0  0
   -3.3075    0.1731    0.5380 H   0  0  0  0  0  0  0  0  0  0  0  0
   -0.8460   -0.1747    1.0682 H   0  0  0  0  0  0  0  0  0  0  0  0
    1.2524   -1.8386    0.3309 H   0  0  0  0  0  0  0  0  0  0  0  0
    1.3018   -1.5390   -1.4150 H   0  0  0  0  0  0  0  0  0  0  0  0
    1.8267    0.2839    0.8294 H   0  0  0  0  0  0  0  0  0  0  0  0
    2.8402    1.3149   -0.7054 H   0  0  0  0  0  0  0  0  0  0  0  0
    0.0100    1.6192    0.8459 H   0  0  0  0  0  0  0  0  0  0  0  0
    0.6305    2.2127   -0.7142 H   0  0  0  0  0  0  0  0  0  0  0  0
  1  2  2  0
  2  3  1  0
  3  4  1  0
  4  5  1  0
  5  6  1  0
  6  7  1  0
  6  8  1  0
  8  9  1  0
  9  3  1  0
  2 10  1  0
  3 11  1  0
  5 12  1  0
  5 13  1  0
  6 14  1  0
  7 15  1  0
  8 16  1  0
  8 17  1  0
M  END
