
     RDKit          3D

 17 18  0  0  0  0  0  0  0  0999 V2000
    1.5240   -1.8695    0.4144 O   0  0  0  0  0  0  0  0  0  0  0  0
    2.0396   -0.7669    0.5040 C   0  0  0  0  0  0  0  0  0  0  0  0
    1.2522    0.3954    0.9956 C   0  0  0  0  0  0  0  0  0  0  0  0
    1.1055    1.3460   -0.1212 C   0  0  0  0  0  0  0  0  0  0  0  0
   -0.0695    1.1548   -0.6743 C   0  0  0  0  0  0  0  0  0  0  0  0
   -0.7272    0.0577    0.0806 C   0  0  0  0  0  0  0  0  0  0  0  0
   -2.1841   -0.1243   -0.0156 C   0  0  0  0  0  0  0  0  0  0  0  0
   -1.1992   -1.0904   -0.6800 C   0  0  0  0  0  0  0  0  0  0  0  0
   -0.0606   -0.0392    1.2913 O   0  0  0  0  0  0  0  0  0  0  0  0
    3.0746   -0.6462    0.2217 H   0  0  0  0  0  0  0  0  0  0  0  0
    1.7147    0.8819    1.8736 H   0  0  0  0  0  0  0  0  0  0  0  0
    1.8405    2.0754   -0.4309 H   0  0  0  0  0  0  0  0  0  0  0  0
   -0.5147    1.6933   -1.5397 H   0  0  0  0  0  0  0  0  0  0  0  0
   -2.7203    0.5997   -0.6759 H   0  0  0  0  0  0  0  0  0  0  0  0
   -2.7946   -0.5087    0.8081 H   0  0  0  0  0  0  0  0  0  0  0  0
   -1.1306   -2.1066   -0.2628 H   0  0  0  0  0  0  0  0  0  0  0  0
   -1.1503   -1.0525   -1.7888 H   0  0  0  0  0  0  0  0  0  0  0  0
  1  2  2  0
  2  3  1  0
  3  4  1  0
  4  5  2  0
  5  6  1  0
  6  7  1  0
  7  8  1  0
  6  9  1  0
  9  3  1  0
  8  6  1  0
  2 10  1  0
  3 11  1  0
  4 12  1  0
  5 13  1  0
  7 14  1  0
  7 15  1  0
  8 16  1  0
  8 17  1  0
M  END
