
     RDKit          3D

 21 21  0  0  0  0  0  0  0  0999 V2000
   -3.1454    0.0972    1.1713 O   0  0  0  0  0  0  0  0  0  0  0  0
   -2.7696    0.6476    0.1436 C   0  0  0  0  0  0  0  0  0  0  0  0
   -1.7807   -0.1016   -0.6771 C   0  0  0  0  0  0  0  0  0  0  0  0
   -0.5955   -0.4260    0.2231 C   0  0  0  0  0  0  0  0  0  0  0  0
   -0.0614    0.8823    0.6801 C   0  0  0  0  0  0  0  0  0  0  0  0
    1.1539    1.3316    0.5097 C   0  0  0  0  0  0  0  0  0  0  0  0
    2.1317    0.4623   -0.2159 C   0  0  0  0  0  0  0  0  0  0  0  0
    1.7668   -0.9602    0.1956 C   0  0  0  0  0  0  0  0  0  0  0  0
    0.4321   -1.2515   -0.4830 C   0  0  0  0  0  0  0  0  0  0  0  0
   -3.1631    1.6140   -0.1106 H   0  0  0  0  0  0  0  0  0  0  0  0
   -2.2666   -1.0300   -1.0529 H   0  0  0  0  0  0  0  0  0  0  0  0
   -1.4463    0.5315   -1.5193 H   0  0  0  0  0  0  0  0  0  0  0  0
   -0.9915   -0.9693    1.0922 H   0  0  0  0  0  0  0  0  0  0  0  0
   -0.7530    1.5379    1.2134 H   0  0  0  0  0  0  0  0  0  0  0  0
    1.4794    2.2940    0.8738 H   0  0  0  0  0  0  0  0  0  0  0  0
    1.9263    0.5184   -1.3275 H   0  0  0  0  0  0  0  0  0  0  0  0
    3.1717    0.6687    0.0228 H   0  0  0  0  0  0  0  0  0  0  0  0
    2.5376   -1.6798   -0.0833 H   0  0  0  0  0  0  0  0  0  0  0  0
    1.6313   -0.8952    1.3068 H   0  0  0  0  0  0  0  0  0  0  0  0
    0.2064   -2.3362   -0.4050 H   0  0  0  0  0  0  0  0  0  0  0  0
    0.5361   -0.9354   -1.5580 H   0  0  0  0  0  0  0  0  0  0  0  0
  1  2  2  0
  2  3  1  0
  3  4  1  0
  4  5  1  0
  5  6  2  0
  6  7  1  0
  7  8  1  0
  8  9  1  0
  9  4  1  0
  2 10  1  0
  3 11  1  0
  3 12  1  0
  4 13  1  0
  5 14  1  0
  6 15  1  0
  7 16  1  0
  7 17  1  0
  8 18  1  0
  8 19  1  0
  9 20  1  0
  9 21  1  0
M  END
