
     RDKit          3D

 19 18  0  0  0  0  0  0  0  0999 V2000
   -2.6655   -1.6271   -1.4414 O   0  0  0  0  0  0  0  0  0  0  0  0
   -2.3636   -1.0479   -0.4129 C   0  0  0  0  0  0  0  0  0  0  0  0
   -1.3637    0.0530   -0.3852 C   0  0  0  0  0  0  0  0  0  0  0  0
   -1.8468    1.1363    0.4811 C   0  0  0  0  0  0  0  0  0  0  0  0
   -2.5816    1.9727    0.0198 O   0  0  0  0  0  0  0  0  0  0  0  0
   -0.0349   -0.5175    0.0417 C   0  0  0  0  0  0  0  0  0  0  0  0
    0.9745    0.5939    0.0696 C   0  0  0  0  0  0  0  0  0  0  0  0
    2.3316    0.0575    0.4968 C   0  0  0  0  0  0  0  0  0  0  0  0
    2.7780   -0.9173   -0.3829 O   0  0  0  0  0  0  0  0  0  0  0  0
   -2.8153   -1.3095    0.5486 H   0  0  0  0  0  0  0  0  0  0  0  0
   -1.2374    0.4032   -1.4366 H   0  0  0  0  0  0  0  0  0  0  0  0
   -1.5503    1.1818    1.5072 H   0  0  0  0  0  0  0  0  0  0  0  0
   -0.0834   -1.1071    0.9656 H   0  0  0  0  0  0  0  0  0  0  0  0
    0.2697   -1.2337   -0.7719 H   0  0  0  0  0  0  0  0  0  0  0  0
    1.0581    1.0312   -0.9261 H   0  0  0  0  0  0  0  0  0  0  0  0
    0.6190    1.3610    0.7849 H   0  0  0  0  0  0  0  0  0  0  0  0
    3.0616    0.8854    0.5087 H   0  0  0  0  0  0  0  0  0  0  0  0
    2.2617   -0.3667    1.5279 H   0  0  0  0  0  0  0  0  0  0  0  0
    3.1883   -0.5493   -1.1949 H   0  0  0  0  0  0  0  0  0  0  0  0
  1  2  2  0
  2  3  1  0
  3  4  1  0
  4  5  2  0
  3  6  1  0
  6  7  1  0
  7  8  1  0
  8  9  1  0
  2 10  1  0
  3 11  1  0
  4 12  1  0
  6 13  1  0
  6 14  1  0
  7 15  1  0
  7 16  1  0
  8 17  1  0
  8 18  1  0
  9 19  1  0
M  END
