
     RDKit          3D

 15 15  0  0  0  0  0  0  0  0999 V2000
    2.3943   -1.4029    0.6053 O   0  0  0  0  0  0  0  0  0  0  0  0
    1.3307   -0.9809    0.9762 C   0  0  0  0  0  0  0  0  0  0  0  0
    0.5684   -0.0265    0.1433 C   0  0  0  0  0  0  0  0  0  0  0  0
    1.3139    0.2146   -1.0222 O   0  0  0  0  0  0  0  0  0  0  0  0
    0.4183    1.2489    0.8605 C   0  0  0  0  0  0  0  0  0  0  0  0
    0.9129    2.2554    0.3957 O   0  0  0  0  0  0  0  0  0  0  0  0
   -0.7764   -0.6235   -0.2420 C   0  0  0  0  0  0  0  0  0  0  0  0
   -2.0087   -0.0753    0.2026 C   0  0  0  0  0  0  0  0  0  0  0  0
   -1.5061    0.3176   -1.1092 O   0  0  0  0  0  0  0  0  0  0  0  0
    0.9132   -1.2865    1.9162 H   0  0  0  0  0  0  0  0  0  0  0  0
    2.2074    0.5120   -0.7850 H   0  0  0  0  0  0  0  0  0  0  0  0
   -0.1145    1.3633    1.7980 H   0  0  0  0  0  0  0  0  0  0  0  0
   -0.7266   -1.6522   -0.6470 H   0  0  0  0  0  0  0  0  0  0  0  0
   -2.9386   -0.6427    0.1230 H   0  0  0  0  0  0  0  0  0  0  0  0
   -1.9882    0.7789    0.9384 H   0  0  0  0  0  0  0  0  0  0  0  0
  1  2  2  0
  2  3  1  0
  3  4  1  0
  3  5  1  0
  5  6  2  0
  3  7  1  0
  7  8  1  0
  8  9  1  0
  9  7  1  0
  2 10  1  0
  4 11  1  0
  5 12  1  0
  7 13  1  0
  8 14  1  0
  8 15  1  0
M  END
