
     RDKit          3D

 19 20  0  0  0  0  0  0  0  0999 V2000
   -2.3829   -2.0403    0.6005 O   0  0  0  0  0  0  0  0  0  0  0  0
   -1.5339   -1.4281   -0.0213 C   0  0  0  0  0  0  0  0  0  0  0  0
   -0.9315   -0.2121    0.5740 C   0  0  0  0  0  0  0  0  0  0  0  0
   -1.5644    1.0299    0.1382 C   0  0  0  0  0  0  0  0  0  0  0  0
   -0.6362    1.9717    0.0701 C   0  0  0  0  0  0  0  0  0  0  0  0
    0.7029    1.4412    0.4548 C   0  0  0  0  0  0  0  0  0  0  0  0
    0.5073   -0.0408    0.2368 C   0  0  0  0  0  0  0  0  0  0  0  0
    1.5106   -1.0230    0.6884 C   0  0  0  0  0  0  0  0  0  0  0  0
    1.2201   -0.7729   -0.8033 C   0  0  0  0  0  0  0  0  0  0  0  0
   -1.2503   -1.8021   -0.9963 H   0  0  0  0  0  0  0  0  0  0  0  0
   -1.0161   -0.2960    1.6781 H   0  0  0  0  0  0  0  0  0  0  0  0
   -2.6156    1.1586   -0.0905 H   0  0  0  0  0  0  0  0  0  0  0  0
   -0.8175    3.0019   -0.2270 H   0  0  0  0  0  0  0  0  0  0  0  0
    1.5218    1.8685   -0.1190 H   0  0  0  0  0  0  0  0  0  0  0  0
    0.9174    1.6009    1.5349 H   0  0  0  0  0  0  0  0  0  0  0  0
    1.1240   -2.0013    1.0598 H   0  0  0  0  0  0  0  0  0  0  0  0
    2.4874   -0.6673    1.0809 H   0  0  0  0  0  0  0  0  0  0  0  0
    0.7388   -1.5665   -1.3707 H   0  0  0  0  0  0  0  0  0  0  0  0
    2.0181   -0.2223   -1.3733 H   0  0  0  0  0  0  0  0  0  0  0  0
  1  2  2  0
  2  3  1  0
  3  4  1  0
  4  5  2  0
  5  6  1  0
  6  7  1  0
  7  8  1  0
  8  9  1  0
  7  3  1  0
  9  7  1  0
  2 10  1  0
  3 11  1  0
  4 12  1  0
  5 13  1  0
  6 14  1  0
  6 15  1  0
  8 16  1  0
  8 17  1  0
  9 18  1  0
  9 19  1  0
M  END
