
     RDKit          3D

 17 17  0  0  0  0  0  0  0  0999 V2000
    3.1925    0.9794   -0.2465 O   0  0  0  0  0  0  0  0  0  0  0  0
    2.2863    0.4522    0.4294 C   0  0  0  0  0  0  0  0  0  0  0  0
    1.4743   -0.6414   -0.1371 C   0  0  0  0  0  0  0  0  0  0  0  0
    0.0781   -0.1090   -0.3408 C   0  0  0  0  0  0  0  0  0  0  0  0
   -0.5715    0.3736    0.9686 C   0  0  0  0  0  0  0  0  0  0  0  0
   -1.8598   -0.0806    0.2791 C   0  0  0  0  0  0  0  0  0  0  0  0
   -2.2185    0.8790   -0.6732 O   0  0  0  0  0  0  0  0  0  0  0  0
   -1.0069   -1.1248   -0.3668 C   0  0  0  0  0  0  0  0  0  0  0  0
   -1.1626   -2.2607   -0.7285 O   0  0  0  0  0  0  0  0  0  0  0  0
    2.1526    0.8518    1.4224 H   0  0  0  0  0  0  0  0  0  0  0  0
    1.4869   -1.5770    0.4375 H   0  0  0  0  0  0  0  0  0  0  0  0
    1.8919   -0.9041   -1.1599 H   0  0  0  0  0  0  0  0  0  0  0  0
    0.0093    0.6547   -1.1165 H   0  0  0  0  0  0  0  0  0  0  0  0
   -0.5140    1.4575    1.1427 H   0  0  0  0  0  0  0  0  0  0  0  0
   -0.3056   -0.2682    1.8342 H   0  0  0  0  0  0  0  0  0  0  0  0
   -2.6518   -0.4370    0.9418 H   0  0  0  0  0  0  0  0  0  0  0  0
   -2.2812    1.7547   -0.1905 H   0  0  0  0  0  0  0  0  0  0  0  0
  1  2  2  0
  2  3  1  0
  3  4  1  0
  4  5  1  0
  5  6  1  0
  6  7  1  0
  6  8  1  0
  8  9  2  0
  8  4  1  0
  2 10  1  0
  3 11  1  0
  3 12  1  0
  4 13  1  0
  5 14  1  0
  5 15  1  0
  6 16  1  0
  7 17  1  0
M  END
