
     RDKit          3D

 21 21  0  0  0  0  0  0  0  0999 V2000
    2.6272   -1.1505    0.5799 O   0  0  0  0  0  0  0  0  0  0  0  0
    2.7166    0.0291    0.7864 C   0  0  0  0  0  0  0  0  0  0  0  0
    1.7710    0.9808    0.1870 C   0  0  0  0  0  0  0  0  0  0  0  0
    0.6528    0.3967   -0.6074 C   0  0  0  0  0  0  0  0  0  0  0  0
   -0.3039   -0.4816    0.1113 C   0  0  0  0  0  0  0  0  0  0  0  0
    0.1414   -1.6211    0.7212 O   0  0  0  0  0  0  0  0  0  0  0  0
   -1.3942    0.2675    0.8879 C   0  0  0  0  0  0  0  0  0  0  0  0
   -2.1188    0.3948   -0.4354 C   0  0  0  0  0  0  0  0  0  0  0  0
   -1.4320   -0.8706   -0.8628 C   0  0  0  0  0  0  0  0  0  0  0  0
    3.4997    0.4115    1.4209 H   0  0  0  0  0  0  0  0  0  0  0  0
    1.4042    1.7419    0.9180 H   0  0  0  0  0  0  0  0  0  0  0  0
    2.4081    1.6017   -0.5226 H   0  0  0  0  0  0  0  0  0  0  0  0
    1.0972   -0.2083   -1.4582 H   0  0  0  0  0  0  0  0  0  0  0  0
    0.1137    1.2548   -1.0630 H   0  0  0  0  0  0  0  0  0  0  0  0
    0.0791   -2.3832    0.0917 H   0  0  0  0  0  0  0  0  0  0  0  0
   -1.0800    1.1965    1.3541 H   0  0  0  0  0  0  0  0  0  0  0  0
   -1.9481   -0.4612    1.5244 H   0  0  0  0  0  0  0  0  0  0  0  0
   -1.9113    1.3065   -1.0096 H   0  0  0  0  0  0  0  0  0  0  0  0
   -3.2183    0.2559   -0.3623 H   0  0  0  0  0  0  0  0  0  0  0  0
   -1.9971   -1.7500   -0.4941 H   0  0  0  0  0  0  0  0  0  0  0  0
   -1.1073   -0.9114   -1.9193 H   0  0  0  0  0  0  0  0  0  0  0  0
  1  2  2  0
  2  3  1  0
  3  4  1  0
  4  5  1  0
  5  6  1  0
  5  7  1  0
  7  8  1  0
  8  9  1  0
  9  5  1  0
  2 10  1  0
  3 11  1  0
  3 12  1  0
  4 13  1  0
  4 14  1  0
  6 15  1  0
  7 16  1  0
  7 17  1  0
  8 18  1  0
  8 19  1  0
  9 20  1  0
  9 21  1  0
M  END
