
     RDKit          3D

 15 17  0  0  0  0  0  0  0  0999 V2000
    2.8391   -0.1171    0.3062 O   0  0  0  0  0  0  0  0  0  0  0  0
    1.8859   -0.3215   -0.4229 C   0  0  0  0  0  0  0  0  0  0  0  0
    0.5502    0.0780   -0.1454 C   0  0  0  0  0  0  0  0  0  0  0  0
   -0.2431   -0.2525    1.0667 C   0  0  0  0  0  0  0  0  0  0  0  0
   -1.4977   -0.8235    0.4088 C   0  0  0  0  0  0  0  0  0  0  0  0
   -1.5316   -0.3604   -0.8808 O   0  0  0  0  0  0  0  0  0  0  0  0
   -0.4815    0.4828   -1.1104 C   0  0  0  0  0  0  0  0  0  0  0  0
    0.0011    1.4045   -0.0042 C   0  0  0  0  0  0  0  0  0  0  0  0
   -0.4329    1.1050    1.2804 O   0  0  0  0  0  0  0  0  0  0  0  0
    2.1307   -0.8606   -1.3559 H   0  0  0  0  0  0  0  0  0  0  0  0
    0.1993   -0.8400    1.8555 H   0  0  0  0  0  0  0  0  0  0  0  0
   -1.3302   -1.9261    0.3646 H   0  0  0  0  0  0  0  0  0  0  0  0
   -2.3802   -0.6008    1.0091 H   0  0  0  0  0  0  0  0  0  0  0  0
   -0.1890    0.6838   -2.1334 H   0  0  0  0  0  0  0  0  0  0  0  0
    0.4798    2.3482   -0.2381 H   0  0  0  0  0  0  0  0  0  0  0  0
  1  2  2  0
  2  3  1  0
  3  4  1  0
  4  5  1  0
  5  6  1  0
  6  7  1  0
  7  8  1  0
  8  9  1  0
  7  3  1  0
  8  3  1  0
  9  4  1  0
  2 10  1  0
  4 11  1  0
  5 12  1  0
  5 13  1  0
  7 14  1  0
  8 15  1  0
M  END
