
     RDKit          3D

 17 18  0  0  0  0  0  0  0  0999 V2000
    1.7911   -0.6080   -1.2604 O   0  0  0  0  0  0  0  0  0  0  0  0
    1.5761    0.4545   -0.7027 C   0  0  0  0  0  0  0  0  0  0  0  0
    0.8259    0.6436    0.5330 C   0  0  0  0  0  0  0  0  0  0  0  0
   -0.6231    1.0633    0.2828 C   0  0  0  0  0  0  0  0  0  0  0  0
   -1.1258    0.3550   -0.9409 C   0  0  0  0  0  0  0  0  0  0  0  0
   -1.3273   -0.9908   -0.6997 O   0  0  0  0  0  0  0  0  0  0  0  0
   -0.4184   -1.5155    0.2283 C   0  0  0  0  0  0  0  0  0  0  0  0
    0.1262   -0.4886    1.1537 C   0  0  0  0  0  0  0  0  0  0  0  0
   -0.9401    0.3925    1.4583 O   0  0  0  0  0  0  0  0  0  0  0  0
    1.9885    1.3372   -1.1828 H   0  0  0  0  0  0  0  0  0  0  0  0
    1.2891    1.3119    1.2564 H   0  0  0  0  0  0  0  0  0  0  0  0
   -0.7069    2.1474    0.2909 H   0  0  0  0  0  0  0  0  0  0  0  0
   -2.0348    0.8114   -1.3566 H   0  0  0  0  0  0  0  0  0  0  0  0
   -0.3082    0.4130   -1.7159 H   0  0  0  0  0  0  0  0  0  0  0  0
    0.3460   -2.1478   -0.2582 H   0  0  0  0  0  0  0  0  0  0  0  0
   -1.0304   -2.2317    0.8545 H   0  0  0  0  0  0  0  0  0  0  0  0
    0.5724   -0.9474    2.0594 H   0  0  0  0  0  0  0  0  0  0  0  0
  1  2  2  0
  2  3  1  0
  3  4  1  0
  4  5  1  0
  5  6  1  0
  6  7  1  0
  7  8  1  0
  8  9  1  0
  8  3  1  0
  9  4  1  0
  2 10  1  0
  3 11  1  0
  4 12  1  0
  5 13  1  0
  5 14  1  0
  7 15  1  0
  7 16  1  0
  8 17  1  0
M  END
