
     RDKit          3D

 17 18  0  0  0  0  0  0  0  0999 V2000
    2.6403    1.2078    0.0969 O   0  0  0  0  0  0  0  0  0  0  0  0
    2.4979    0.1179   -0.4466 C   0  0  0  0  0  0  0  0  0  0  0  0
    1.4576   -0.7849    0.0978 C   0  0  0  0  0  0  0  0  0  0  0  0
    0.1399   -0.1475    0.1615 C   0  0  0  0  0  0  0  0  0  0  0  0
   -0.2023    1.0722   -0.1984 C   0  0  0  0  0  0  0  0  0  0  0  0
   -1.6162    1.2343    0.0621 C   0  0  0  0  0  0  0  0  0  0  0  0
   -2.7261    0.8709   -0.5011 O   0  0  0  0  0  0  0  0  0  0  0  0
   -2.0031   -0.2019   -0.4314 C   0  0  0  0  0  0  0  0  0  0  0  0
   -1.1282   -0.8352    0.6313 C   0  0  0  0  0  0  0  0  0  0  0  0
    3.1338   -0.1201   -1.2909 H   0  0  0  0  0  0  0  0  0  0  0  0
    1.7958   -1.1142    1.1272 H   0  0  0  0  0  0  0  0  0  0  0  0
    1.4568   -1.7219   -0.5107 H   0  0  0  0  0  0  0  0  0  0  0  0
    0.4381    1.8710   -0.6199 H   0  0  0  0  0  0  0  0  0  0  0  0
   -1.7685    1.4149    1.1784 H   0  0  0  0  0  0  0  0  0  0  0  0
   -1.5712   -0.4784   -1.4471 H   0  0  0  0  0  0  0  0  0  0  0  0
   -1.1227   -1.9067    0.4702 H   0  0  0  0  0  0  0  0  0  0  0  0
   -1.4220   -0.4783    1.6207 H   0  0  0  0  0  0  0  0  0  0  0  0
  1  2  2  0
  2  3  1  0
  3  4  1  0
  4  5  2  0
  5  6  1  0
  6  7  1  0
  7  8  1  0
  8  9  1  0
  9  4  1  0
  8  6  1  0
  2 10  1  0
  3 11  1  0
  3 12  1  0
  5 13  1  0
  6 14  1  0
  8 15  1  0
  9 16  1  0
  9 17  1  0
M  END
