
     RDKit          3D

 19 19  0  0  0  0  0  0  0  0999 V2000
   -3.0690   -1.4016    0.1181 O   0  0  0  0  0  0  0  0  0  0  0  0
   -2.5500   -0.6361    0.9154 C   0  0  0  0  0  0  0  0  0  0  0  0
   -1.2339   -0.0171    0.5947 C   0  0  0  0  0  0  0  0  0  0  0  0
   -0.9499    0.4464   -0.8066 C   0  0  0  0  0  0  0  0  0  0  0  0
   -0.3397    1.6774   -0.9996 O   0  0  0  0  0  0  0  0  0  0  0  0
   -0.2888   -0.7454   -0.2829 C   0  0  0  0  0  0  0  0  0  0  0  0
    1.1366   -0.9247    0.0569 C   0  0  0  0  0  0  0  0  0  0  0  0
    1.9960    0.2610    0.2363 C   0  0  0  0  0  0  0  0  0  0  0  0
    2.1279    1.0711   -0.8870 O   0  0  0  0  0  0  0  0  0  0  0  0
   -3.0961   -0.4498    1.8339 H   0  0  0  0  0  0  0  0  0  0  0  0
   -0.8719    0.6574    1.3999 H   0  0  0  0  0  0  0  0  0  0  0  0
   -1.7907    0.3155   -1.5593 H   0  0  0  0  0  0  0  0  0  0  0  0
   -1.0014    2.4253   -0.9198 H   0  0  0  0  0  0  0  0  0  0  0  0
   -0.7333   -1.7202   -0.6793 H   0  0  0  0  0  0  0  0  0  0  0  0
    1.6478   -1.6178   -0.6497 H   0  0  0  0  0  0  0  0  0  0  0  0
    1.1698   -1.4933    1.0400 H   0  0  0  0  0  0  0  0  0  0  0  0
    3.0435   -0.1269    0.4246 H   0  0  0  0  0  0  0  0  0  0  0  0
    1.7724    0.8476    1.1533 H   0  0  0  0  0  0  0  0  0  0  0  0
    3.0306    1.4311   -0.9886 H   0  0  0  0  0  0  0  0  0  0  0  0
  1  2  2  0
  2  3  1  0
  3  4  1  0
  4  5  1  0
  4  6  1  0
  6  7  1  0
  7  8  1  0
  8  9  1  0
  6  3  1  0
  2 10  1  0
  3 11  1  0
  4 12  1  0
  5 13  1  0
  6 14  1  0
  7 15  1  0
  7 16  1  0
  8 17  1  0
  8 18  1  0
  9 19  1  0
M  END
