
     RDKit          3D

 19 18  0  0  0  0  0  0  0  0999 V2000
    3.6396   -0.1879    0.5434 O   0  0  0  0  0  0  0  0  0  0  0  0
    2.4770    0.1844    0.4073 C   0  0  0  0  0  0  0  0  0  0  0  0
    1.6062   -0.5115   -0.5612 C   0  0  0  0  0  0  0  0  0  0  0  0
    0.3380   -0.0220   -0.6393 O   0  0  0  0  0  0  0  0  0  0  0  0
   -0.4100   -0.0499    0.5101 C   0  0  0  0  0  0  0  0  0  0  0  0
   -1.6027   -1.0237    0.3364 C   0  0  0  0  0  0  0  0  0  0  0  0
   -1.0998   -2.2762    0.0734 O   0  0  0  0  0  0  0  0  0  0  0  0
   -1.0525    1.2889    0.7841 C   0  0  0  0  0  0  0  0  0  0  0  0
   -0.1806    2.3291    0.9383 O   0  0  0  0  0  0  0  0  0  0  0  0
    2.1904    1.0162    1.0318 H   0  0  0  0  0  0  0  0  0  0  0  0
    2.1006   -0.4177   -1.5710 H   0  0  0  0  0  0  0  0  0  0  0  0
    1.6494   -1.6031   -0.3097 H   0  0  0  0  0  0  0  0  0  0  0  0
    0.1861   -0.4485    1.3464 H   0  0  0  0  0  0  0  0  0  0  0  0
   -2.1817   -0.9436    1.2670 H   0  0  0  0  0  0  0  0  0  0  0  0
   -2.2076   -0.6330   -0.4849 H   0  0  0  0  0  0  0  0  0  0  0  0
   -1.4522   -2.6134   -0.7702 H   0  0  0  0  0  0  0  0  0  0  0  0
   -1.6875    1.1561    1.6877 H   0  0  0  0  0  0  0  0  0  0  0  0
   -1.7712    1.5619   -0.0260 H   0  0  0  0  0  0  0  0  0  0  0  0
   -0.5417    3.1939    0.5741 H   0  0  0  0  0  0  0  0  0  0  0  0
  1  2  2  0
  2  3  1  0
  3  4  1  0
  4  5  1  0
  5  6  1  0
  6  7  1  0
  5  8  1  0
  8  9  1  0
  2 10  1  0
  3 11  1  0
  3 12  1  0
  5 13  1  0
  6 14  1  0
  6 15  1  0
  7 16  1  0
  8 17  1  0
  8 18  1  0
  9 19  1  0
M  END
