
     RDKit          3D

 19 19  0  0  0  0  0  0  0  0999 V2000
    3.6371   -0.2184    0.9747 O   0  0  0  0  0  0  0  0  0  0  0  0
    2.8318    0.2419    0.1810 C   0  0  0  0  0  0  0  0  0  0  0  0
    1.8131   -0.6023   -0.4737 C   0  0  0  0  0  0  0  0  0  0  0  0
    0.4138   -0.3909    0.0935 C   0  0  0  0  0  0  0  0  0  0  0  0
   -0.0050    1.0347   -0.0780 C   0  0  0  0  0  0  0  0  0  0  0  0
   -1.2663    1.3123    0.1910 C   0  0  0  0  0  0  0  0  0  0  0  0
   -2.0821    0.1151    0.6278 C   0  0  0  0  0  0  0  0  0  0  0  0
   -1.7915   -0.9234   -0.4574 C   0  0  0  0  0  0  0  0  0  0  0  0
   -0.4645   -1.1881   -0.5784 O   0  0  0  0  0  0  0  0  0  0  0  0
    2.8564    1.2996   -0.0580 H   0  0  0  0  0  0  0  0  0  0  0  0
    1.8652   -0.5204   -1.5571 H   0  0  0  0  0  0  0  0  0  0  0  0
    2.0516   -1.6674   -0.1941 H   0  0  0  0  0  0  0  0  0  0  0  0
    0.4651   -0.5724    1.1864 H   0  0  0  0  0  0  0  0  0  0  0  0
    0.7098    1.7963   -0.4137 H   0  0  0  0  0  0  0  0  0  0  0  0
   -1.6779    2.2868    0.1089 H   0  0  0  0  0  0  0  0  0  0  0  0
   -1.6465   -0.2452    1.5898 H   0  0  0  0  0  0  0  0  0  0  0  0
   -3.1446    0.3173    0.6527 H   0  0  0  0  0  0  0  0  0  0  0  0
   -2.4435   -1.8088   -0.3820 H   0  0  0  0  0  0  0  0  0  0  0  0
   -2.1218   -0.3994   -1.4135 H   0  0  0  0  0  0  0  0  0  0  0  0
  1  2  2  0
  2  3  1  0
  3  4  1  0
  4  5  1  0
  5  6  2  0
  6  7  1  0
  7  8  1  0
  8  9  1  0
  9  4  1  0
  2 10  1  0
  3 11  1  0
  3 12  1  0
  4 13  1  0
  5 14  1  0
  6 15  1  0
  7 16  1  0
  7 17  1  0
  8 18  1  0
  8 19  1  0
M  END
