
     RDKit          3D

 15 16  0  0  0  0  0  0  0  0999 V2000
   -1.2299    2.3604   -0.2027 O   0  0  0  0  0  0  0  0  0  0  0  0
   -1.5386    1.2060   -0.4457 C   0  0  0  0  0  0  0  0  0  0  0  0
   -0.4721    0.2251   -0.6712 C   0  0  0  0  0  0  0  0  0  0  0  0
    0.5686    0.2987    0.4371 C   0  0  0  0  0  0  0  0  0  0  0  0
    1.9633    0.3120   -0.0219 C   0  0  0  0  0  0  0  0  0  0  0  0
    2.8166    0.9543    0.5848 O   0  0  0  0  0  0  0  0  0  0  0  0
    0.0596   -1.0856    0.8680 C   0  0  0  0  0  0  0  0  0  0  0  0
    0.3086   -2.0505   -0.1009 O   0  0  0  0  0  0  0  0  0  0  0  0
   -0.8503   -1.1214   -0.1159 C   0  0  0  0  0  0  0  0  0  0  0  0
   -2.5950    0.9760   -0.4799 H   0  0  0  0  0  0  0  0  0  0  0  0
   -0.0724    0.1402   -1.6883 H   0  0  0  0  0  0  0  0  0  0  0  0
    0.3614    1.0295    1.2275 H   0  0  0  0  0  0  0  0  0  0  0  0
    2.2955   -0.2335   -0.8992 H   0  0  0  0  0  0  0  0  0  0  0  0
    0.1094   -1.3507    1.9333 H   0  0  0  0  0  0  0  0  0  0  0  0
   -1.7247   -1.6603   -0.4249 H   0  0  0  0  0  0  0  0  0  0  0  0
  1  2  2  0
  2  3  1  0
  3  4  1  0
  4  5  1  0
  5  6  2  0
  4  7  1  0
  7  8  1  0
  8  9  1  0
  9  3  1  0
  9  7  1  0
  2 10  1  0
  3 11  1  0
  4 12  1  0
  5 13  1  0
  7 14  1  0
  9 15  1  0
M  END
