
     RDKit          3D

 19 19  0  0  0  0  0  0  0  0999 V2000
   -3.1569   -0.1818   -1.5044 O   0  0  0  0  0  0  0  0  0  0  0  0
   -2.4720    0.6900   -1.0417 C   0  0  0  0  0  0  0  0  0  0  0  0
   -1.7026    0.5117    0.1891 C   0  0  0  0  0  0  0  0  0  0  0  0
   -0.4643   -0.3637    0.0102 C   0  0  0  0  0  0  0  0  0  0  0  0
   -0.7523   -1.6349   -0.4289 O   0  0  0  0  0  0  0  0  0  0  0  0
    0.4774   -0.2910    1.1667 C   0  0  0  0  0  0  0  0  0  0  0  0
    0.8187    0.3134   -0.1680 C   0  0  0  0  0  0  0  0  0  0  0  0
    1.9879   -0.3057   -0.8580 C   0  0  0  0  0  0  0  0  0  0  0  0
    3.0391    0.6270   -0.8411 O   0  0  0  0  0  0  0  0  0  0  0  0
   -2.4262    1.6407   -1.5590 H   0  0  0  0  0  0  0  0  0  0  0  0
   -2.3559    0.1026    0.9855 H   0  0  0  0  0  0  0  0  0  0  0  0
   -1.3237    1.4979    0.5741 H   0  0  0  0  0  0  0  0  0  0  0  0
   -1.4691   -2.0229    0.1484 H   0  0  0  0  0  0  0  0  0  0  0  0
    0.9648   -1.2207    1.5041 H   0  0  0  0  0  0  0  0  0  0  0  0
    0.2817    0.4173    2.0056 H   0  0  0  0  0  0  0  0  0  0  0  0
    0.7729    1.4309   -0.2570 H   0  0  0  0  0  0  0  0  0  0  0  0
    2.3627   -1.2231   -0.3715 H   0  0  0  0  0  0  0  0  0  0  0  0
    1.7656   -0.4575   -1.9552 H   0  0  0  0  0  0  0  0  0  0  0  0
    3.6522    0.4698   -0.0604 H   0  0  0  0  0  0  0  0  0  0  0  0
  1  2  2  0
  2  3  1  0
  3  4  1  0
  4  5  1  0
  4  6  1  0
  6  7  1  0
  7  8  1  0
  8  9  1  0
  7  4  1  0
  2 10  1  0
  3 11  1  0
  3 12  1  0
  5 13  1  0
  6 14  1  0
  6 15  1  0
  7 16  1  0
  8 17  1  0
  8 18  1  0
  9 19  1  0
M  END
