
     RDKit          3D

 21 21  0  0  0  0  0  0  0  0999 V2000
    4.1377    1.6161   -0.9492 O   0  0  0  0  0  0  0  0  0  0  0  0
    2.9717    1.3019   -1.0257 C   0  0  0  0  0  0  0  0  0  0  0  0
    2.3521    0.5842    0.1179 C   0  0  0  0  0  0  0  0  0  0  0  0
    1.0231    0.3047   -0.1388 O   0  0  0  0  0  0  0  0  0  0  0  0
    0.4861   -0.3565    0.9363 C   0  0  0  0  0  0  0  0  0  0  0  0
   -0.9681   -0.7098    0.7575 C   0  0  0  0  0  0  0  0  0  0  0  0
   -1.8916    0.4711    0.5439 C   0  0  0  0  0  0  0  0  0  0  0  0
   -2.6135   -0.4050   -0.4640 C   0  0  0  0  0  0  0  0  0  0  0  0
   -1.2716   -1.0721   -0.7033 C   0  0  0  0  0  0  0  0  0  0  0  0
    2.3621    1.5242   -1.8969 H   0  0  0  0  0  0  0  0  0  0  0  0
    2.4158    1.1520    1.0618 H   0  0  0  0  0  0  0  0  0  0  0  0
    2.9251   -0.3707    0.2771 H   0  0  0  0  0  0  0  0  0  0  0  0
    0.5658    0.2005    1.8956 H   0  0  0  0  0  0  0  0  0  0  0  0
    1.0319   -1.3112    1.0833 H   0  0  0  0  0  0  0  0  0  0  0  0
   -1.3502   -1.4797    1.4246 H   0  0  0  0  0  0  0  0  0  0  0  0
   -2.4965    0.7649    1.4198 H   0  0  0  0  0  0  0  0  0  0  0  0
   -1.3914    1.2982    0.0063 H   0  0  0  0  0  0  0  0  0  0  0  0
   -3.0206    0.1395   -1.3344 H   0  0  0  0  0  0  0  0  0  0  0  0
   -3.3223   -1.0675    0.0654 H   0  0  0  0  0  0  0  0  0  0  0  0
   -1.2971   -2.1406   -0.9137 H   0  0  0  0  0  0  0  0  0  0  0  0
   -0.6482   -0.4440   -1.3642 H   0  0  0  0  0  0  0  0  0  0  0  0
  1  2  2  0
  2  3  1  0
  3  4  1  0
  4  5  1  0
  5  6  1  0
  6  7  1  0
  7  8  1  0
  8  9  1  0
  9  6  1  0
  2 10  1  0
  3 11  1  0
  3 12  1  0
  5 13  1  0
  5 14  1  0
  6 15  1  0
  7 16  1  0
  7 17  1  0
  8 18  1  0
  8 19  1  0
  9 20  1  0
  9 21  1  0
M  END
