
     RDKit          3D

 19 19  0  0  0  0  0  0  0  0999 V2000
    2.6558   -1.1220    1.5425 O   0  0  0  0  0  0  0  0  0  0  0  0
    2.8182   -0.0142    1.0789 C   0  0  0  0  0  0  0  0  0  0  0  0
    1.7845    0.5450    0.1780 C   0  0  0  0  0  0  0  0  0  0  0  0
    0.6377   -0.4520   -0.0028 C   0  0  0  0  0  0  0  0  0  0  0  0
   -0.4085    0.0912   -0.9031 C   0  0  0  0  0  0  0  0  0  0  0  0
   -1.5850   -0.8375   -1.1360 C   0  0  0  0  0  0  0  0  0  0  0  0
   -1.7360    0.5483   -0.4874 C   0  0  0  0  0  0  0  0  0  0  0  0
   -2.2394    0.4949    0.8816 C   0  0  0  0  0  0  0  0  0  0  0  0
   -1.8174   -0.2540    1.7493 O   0  0  0  0  0  0  0  0  0  0  0  0
    3.6890    0.5564    1.3105 H   0  0  0  0  0  0  0  0  0  0  0  0
    2.2822    0.7499   -0.7996 H   0  0  0  0  0  0  0  0  0  0  0  0
    1.3756    1.4753    0.6273 H   0  0  0  0  0  0  0  0  0  0  0  0
    1.1140   -1.3271   -0.5370 H   0  0  0  0  0  0  0  0  0  0  0  0
    0.3094   -0.8070    0.9715 H   0  0  0  0  0  0  0  0  0  0  0  0
    0.0206    0.5761   -1.8264 H   0  0  0  0  0  0  0  0  0  0  0  0
   -1.9144   -0.9448   -2.1809 H   0  0  0  0  0  0  0  0  0  0  0  0
   -1.6995   -1.7272   -0.4980 H   0  0  0  0  0  0  0  0  0  0  0  0
   -2.2419    1.2948   -1.1502 H   0  0  0  0  0  0  0  0  0  0  0  0
   -3.0447    1.1538    1.1816 H   0  0  0  0  0  0  0  0  0  0  0  0
  1  2  2  0
  2  3  1  0
  3  4  1  0
  4  5  1  0
  5  6  1  0
  6  7  1  0
  7  8  1  0
  8  9  2  0
  7  5  1  0
  2 10  1  0
  3 11  1  0
  3 12  1  0
  4 13  1  0
  4 14  1  0
  5 15  1  0
  6 16  1  0
  6 17  1  0
  7 18  1  0
  8 19  1  0
M  END
