
     RDKit          3D

 11 11  0  0  0  0  0  0  0  0999 V2000
    1.6824   -0.0203    1.2405 O   0  0  0  0  0  0  0  0  0  0  0  0
    1.4224   -0.4787    0.1453 C   0  0  0  0  0  0  0  0  0  0  0  0
    0.1498   -0.1890   -0.4844 C   0  0  0  0  0  0  0  0  0  0  0  0
   -0.5472    1.0812    0.0151 C   0  0  0  0  0  0  0  0  0  0  0  0
   -1.7393    0.3588   -0.3185 O   0  0  0  0  0  0  0  0  0  0  0  0
   -1.0676   -0.7646    0.1142 C   0  0  0  0  0  0  0  0  0  0  0  0
   -1.3554   -1.7990    0.7315 O   0  0  0  0  0  0  0  0  0  0  0  0
    2.1662   -1.1000   -0.3306 H   0  0  0  0  0  0  0  0  0  0  0  0
    0.0938   -0.2278   -1.5873 H   0  0  0  0  0  0  0  0  0  0  0  0
   -0.3092    1.9213   -0.6263 H   0  0  0  0  0  0  0  0  0  0  0  0
   -0.4959    1.2183    1.1005 H   0  0  0  0  0  0  0  0  0  0  0  0
  1  2  2  0
  2  3  1  0
  3  4  1  0
  4  5  1  0
  5  6  1  0
  6  7  2  0
  6  3  1  0
  2  8  1  0
  3  9  1  0
  4 10  1  0
  4 11  1  0
M  END
