
     RDKit          3D

 19 20  0  0  0  0  0  0  0  0999 V2000
   -2.8133   -1.4066   -1.0785 O   0  0  0  0  0  0  0  0  0  0  0  0
   -2.5579   -0.2619   -0.7516 C   0  0  0  0  0  0  0  0  0  0  0  0
   -1.2605    0.3757   -0.7232 C   0  0  0  0  0  0  0  0  0  0  0  0
   -0.0418   -0.5020   -0.8265 C   0  0  0  0  0  0  0  0  0  0  0  0
   -0.3462   -0.9324    0.5787 C   0  0  0  0  0  0  0  0  0  0  0  0
   -0.5691    0.5401    0.6056 C   0  0  0  0  0  0  0  0  0  0  0  0
    0.6562    0.6843   -0.2485 C   0  0  0  0  0  0  0  0  0  0  0  0
    1.9774    0.5237    0.3512 C   0  0  0  0  0  0  0  0  0  0  0  0
    2.8630    0.0297   -0.6365 O   0  0  0  0  0  0  0  0  0  0  0  0
   -3.4226    0.3197   -0.4532 H   0  0  0  0  0  0  0  0  0  0  0  0
   -1.1133    1.2884   -1.3355 H   0  0  0  0  0  0  0  0  0  0  0  0
    0.2291   -1.0721   -1.6000 H   0  0  0  0  0  0  0  0  0  0  0  0
    0.5140   -1.3475    1.0945 H   0  0  0  0  0  0  0  0  0  0  0  0
   -1.2304   -1.5626    0.7210 H   0  0  0  0  0  0  0  0  0  0  0  0
   -0.8584    1.1234    1.3661 H   0  0  0  0  0  0  0  0  0  0  0  0
    0.5773    1.6320   -0.8436 H   0  0  0  0  0  0  0  0  0  0  0  0
    2.3835    1.5548    0.5782 H   0  0  0  0  0  0  0  0  0  0  0  0
    2.0691   -0.0431    1.2693 H   0  0  0  0  0  0  0  0  0  0  0  0
    2.9440   -0.9435   -0.5829 H   0  0  0  0  0  0  0  0  0  0  0  0
  1  2  2  0
  2  3  1  0
  3  4  1  0
  4  5  1  0
  5  6  1  0
  6  7  1  0
  7  8  1  0
  8  9  1  0
  6  3  1  0
  7  4  1  0
  2 10  1  0
  3 11  1  0
  4 12  1  0
  5 13  1  0
  5 14  1  0
  6 15  1  0
  7 16  1  0
  8 17  1  0
  8 18  1  0
  9 19  1  0
M  END
