
     RDKit          3D

 19 20  0  0  0  0  0  0  0  0999 V2000
   -1.0633   -1.9776    1.8538 O   0  0  0  0  0  0  0  0  0  0  0  0
    0.0030   -1.6772    1.3592 C   0  0  0  0  0  0  0  0  0  0  0  0
    0.0964   -0.7785    0.1855 C   0  0  0  0  0  0  0  0  0  0  0  0
   -1.2294   -0.4265   -0.4903 C   0  0  0  0  0  0  0  0  0  0  0  0
   -1.4844    1.0267   -0.0941 C   0  0  0  0  0  0  0  0  0  0  0  0
   -0.5467    1.7597   -0.8141 O   0  0  0  0  0  0  0  0  0  0  0  0
    0.7032    1.6179   -0.2925 C   0  0  0  0  0  0  0  0  0  0  0  0
    1.0980    0.2754    0.1563 C   0  0  0  0  0  0  0  0  0  0  0  0
    1.2408   -0.8794   -0.7634 C   0  0  0  0  0  0  0  0  0  0  0  0
    0.8954   -2.0877    1.8031 H   0  0  0  0  0  0  0  0  0  0  0  0
   -2.0090   -1.0997   -0.1020 H   0  0  0  0  0  0  0  0  0  0  0  0
   -1.1479   -0.4351   -1.5907 H   0  0  0  0  0  0  0  0  0  0  0  0
   -1.2565    1.0770    0.9988 H   0  0  0  0  0  0  0  0  0  0  0  0
   -2.5158    1.3299   -0.2578 H   0  0  0  0  0  0  0  0  0  0  0  0
    1.4367    1.9694   -1.0650 H   0  0  0  0  0  0  0  0  0  0  0  0
    0.8096    2.3447    0.5486 H   0  0  0  0  0  0  0  0  0  0  0  0
    1.8435    0.2630    1.0069 H   0  0  0  0  0  0  0  0  0  0  0  0
    1.0867   -0.6584   -1.8360 H   0  0  0  0  0  0  0  0  0  0  0  0
    2.0397   -1.6436   -0.6065 H   0  0  0  0  0  0  0  0  0  0  0  0
  1  2  2  0
  2  3  1  0
  3  4  1  0
  4  5  1  0
  5  6  1  0
  6  7  1  0
  7  8  1  0
  8  9  1  0
  8  3  1  0
  9  3  1  0
  2 10  1  0
  4 11  1  0
  4 12  1  0
  5 13  1  0
  5 14  1  0
  7 15  1  0
  7 16  1  0
  8 17  1  0
  9 18  1  0
  9 19  1  0
M  END
