
     RDKit          3D

 19 20  0  0  0  0  0  0  0  0999 V2000
    2.4788    1.8409   -0.8450 O   0  0  0  0  0  0  0  0  0  0  0  0
    1.4398    1.3111   -0.4983 C   0  0  0  0  0  0  0  0  0  0  0  0
    1.3143   -0.1179   -0.2019 C   0  0  0  0  0  0  0  0  0  0  0  0
    2.5742   -0.7385   -0.0046 O   0  0  0  0  0  0  0  0  0  0  0  0
    0.2332   -0.9906   -0.6036 C   0  0  0  0  0  0  0  0  0  0  0  0
   -1.1433   -0.6191   -0.9829 C   0  0  0  0  0  0  0  0  0  0  0  0
   -1.6927    0.4097   -0.0687 C   0  0  0  0  0  0  0  0  0  0  0  0
   -0.7734    0.3942    1.1041 C   0  0  0  0  0  0  0  0  0  0  0  0
    0.3281   -0.5829    0.8284 C   0  0  0  0  0  0  0  0  0  0  0  0
    0.5720    1.9433   -0.4088 H   0  0  0  0  0  0  0  0  0  0  0  0
    2.8752   -0.5698    0.9254 H   0  0  0  0  0  0  0  0  0  0  0  0
    0.5141   -2.0358   -0.9216 H   0  0  0  0  0  0  0  0  0  0  0  0
   -1.2771   -0.3728   -2.0640 H   0  0  0  0  0  0  0  0  0  0  0  0
   -1.7859   -1.5461   -0.8448 H   0  0  0  0  0  0  0  0  0  0  0  0
   -2.7538    0.1790    0.2485 H   0  0  0  0  0  0  0  0  0  0  0  0
   -1.7400    1.3805   -0.6044 H   0  0  0  0  0  0  0  0  0  0  0  0
   -0.4137    1.4162    1.3445 H   0  0  0  0  0  0  0  0  0  0  0  0
   -1.3538    0.0136    1.9951 H   0  0  0  0  0  0  0  0  0  0  0  0
    0.6038   -1.3152    1.6025 H   0  0  0  0  0  0  0  0  0  0  0  0
  1  2  2  0
  2  3  1  0
  3  4  1  0
  3  5  1  0
  5  6  1  0
  6  7  1  0
  7  8  1  0
  8  9  1  0
  9  3  1  0
  9  5  1  0
  2 10  1  0
  4 11  1  0
  5 12  1  0
  6 13  1  0
  6 14  1  0
  7 15  1  0
  7 16  1  0
  8 17  1  0
  8 18  1  0
  9 19  1  0
M  END
