
     RDKit          3D

 21 21  0  0  0  0  0  0  0  0999 V2000
   -2.8024   -0.6090   -1.1364 O   0  0  0  0  0  0  0  0  0  0  0  0
   -1.9769    0.1584   -0.6840 C   0  0  0  0  0  0  0  0  0  0  0  0
   -1.2378   -0.1897    0.5318 C   0  0  0  0  0  0  0  0  0  0  0  0
   -0.5670    1.0245    1.1165 C   0  0  0  0  0  0  0  0  0  0  0  0
    0.3800    1.6433    0.1464 C   0  0  0  0  0  0  0  0  0  0  0  0
    1.4340    1.1038   -0.4592 C   0  0  0  0  0  0  0  0  0  0  0  0
    1.8950   -0.3152   -0.2675 C   0  0  0  0  0  0  0  0  0  0  0  0
    0.7253   -1.1775   -0.6931 C   0  0  0  0  0  0  0  0  0  0  0  0
   -0.2968   -1.3527    0.3635 C   0  0  0  0  0  0  0  0  0  0  0  0
   -1.8253    1.0842   -1.2157 H   0  0  0  0  0  0  0  0  0  0  0  0
   -1.9982   -0.5219    1.2985 H   0  0  0  0  0  0  0  0  0  0  0  0
   -1.3770    1.7630    1.3392 H   0  0  0  0  0  0  0  0  0  0  0  0
   -0.0426    0.7724    2.0564 H   0  0  0  0  0  0  0  0  0  0  0  0
    0.1927    2.6906   -0.1132 H   0  0  0  0  0  0  0  0  0  0  0  0
    2.0189    1.7082   -1.1441 H   0  0  0  0  0  0  0  0  0  0  0  0
    2.0048   -0.4677    0.8454 H   0  0  0  0  0  0  0  0  0  0  0  0
    2.8112   -0.5117   -0.8200 H   0  0  0  0  0  0  0  0  0  0  0  0
    1.1515   -2.1818   -0.9286 H   0  0  0  0  0  0  0  0  0  0  0  0
    0.2964   -0.7919   -1.6395 H   0  0  0  0  0  0  0  0  0  0  0  0
   -0.9368   -2.2333    0.0793 H   0  0  0  0  0  0  0  0  0  0  0  0
    0.1511   -1.5956    1.3242 H   0  0  0  0  0  0  0  0  0  0  0  0
  1  2  2  0
  2  3  1  0
  3  4  1  0
  4  5  1  0
  5  6  2  0
  6  7  1  0
  7  8  1  0
  8  9  1  0
  9  3  1  0
  2 10  1  0
  3 11  1  0
  4 12  1  0
  4 13  1  0
  5 14  1  0
  6 15  1  0
  7 16  1  0
  7 17  1  0
  8 18  1  0
  8 19  1  0
  9 20  1  0
  9 21  1  0
M  END
