
     RDKit          3D

 14 15  0  0  0  0  0  0  0  0999 V2000
    2.8734    1.2731    0.8129 O   0  0  0  0  0  0  0  0  0  0  0  0
    2.1946    0.4413    0.2413 C   0  0  0  0  0  0  0  0  0  0  0  0
    0.7501    0.4026    0.5398 C   0  0  0  0  0  0  0  0  0  0  0  0
   -0.0955    0.1795   -0.7200 C   0  0  0  0  0  0  0  0  0  0  0  0
   -1.5824    0.2566   -0.6152 C   0  0  0  0  0  0  0  0  0  0  0  0
   -1.5072   -0.6772    0.5509 C   0  0  0  0  0  0  0  0  0  0  0  0
   -2.3754   -1.0977    1.2966 O   0  0  0  0  0  0  0  0  0  0  0  0
   -0.0457   -0.8341    0.3927 C   0  0  0  0  0  0  0  0  0  0  0  0
    2.6987   -0.2144   -0.4484 H   0  0  0  0  0  0  0  0  0  0  0  0
    0.3875    1.1370    1.2660 H   0  0  0  0  0  0  0  0  0  0  0  0
    0.3861   -0.1333   -1.6429 H   0  0  0  0  0  0  0  0  0  0  0  0
   -2.0216    1.2448   -0.3877 H   0  0  0  0  0  0  0  0  0  0  0  0
   -2.0600   -0.1591   -1.5155 H   0  0  0  0  0  0  0  0  0  0  0  0
    0.3974   -1.8192    0.2294 H   0  0  0  0  0  0  0  0  0  0  0  0
  1  2  2  0
  2  3  1  0
  3  4  1  0
  4  5  1  0
  5  6  1  0
  6  7  2  0
  6  8  1  0
  8  3  1  0
  8  4  1  0
  2  9  1  0
  3 10  1  0
  4 11  1  0
  5 12  1  0
  5 13  1  0
  8 14  1  0
M  END
