
     RDKit          3D

  6  5  0  0  0  0  0  0  0  0999 V2000
    1.4776    0.9320    0.0414 O   0  0  0  0  0  0  0  0  0  0  0  0
    0.7297   -0.0585    0.0613 C   0  0  0  0  0  0  0  0  0  0  0  0
   -0.7332    0.0750   -0.0629 C   0  0  0  0  0  0  0  0  0  0  0  0
   -1.4602   -0.9509   -0.0386 O   0  0  0  0  0  0  0  0  0  0  0  0
    1.1577   -1.0485    0.1724 H   0  0  0  0  0  0  0  0  0  0  0  0
   -1.1717    1.0509   -0.1737 H   0  0  0  0  0  0  0  0  0  0  0  0
  1  2  2  0
  2  3  1  0
  3  4  2  0
  2  5  1  0
  3  6  1  0
M  END
