
     RDKit          3D

 17 16  0  0  0  0  0  0  0  0999 V2000
    3.2842   -2.8338    2.1561 O   0  0  0  0  0  0  0  0  0  0  0  0
    3.3283   -1.5786    2.1437 C   0  0  0  0  0  0  0  0  0  0  0  0
    2.1548   -0.8661    1.7241 C   0  0  0  0  0  0  0  0  0  0  0  0
    1.1700   -0.2559    1.3890 C   0  0  0  0  0  0  0  0  0  0  0  0
   -0.0261    0.5073    0.9925 C   0  0  0  0  0  0  0  0  0  0  0  0
   -0.4567    0.0649   -0.3943 C   0  0  0  0  0  0  0  0  0  0  0  0
   -1.6937    0.8914   -0.7409 C   0  0  0  0  0  0  0  0  0  0  0  0
   -2.2021    0.5336   -2.0926 C   0  0  0  0  0  0  0  0  0  0  0  0
   -3.1797    1.0597   -2.5892 O   0  0  0  0  0  0  0  0  0  0  0  0
    4.2492   -1.1036    2.4504 H   0  0  0  0  0  0  0  0  0  0  0  0
   -0.8104    0.2846    1.7433 H   0  0  0  0  0  0  0  0  0  0  0  0
    0.1436    1.5992    1.0274 H   0  0  0  0  0  0  0  0  0  0  0  0
    0.3315    0.2995   -1.1343 H   0  0  0  0  0  0  0  0  0  0  0  0
   -0.6802   -1.0148   -0.4289 H   0  0  0  0  0  0  0  0  0  0  0  0
   -2.4831    0.6650   -0.0096 H   0  0  0  0  0  0  0  0  0  0  0  0
   -1.4453    1.9718   -0.7656 H   0  0  0  0  0  0  0  0  0  0  0  0
   -1.6844   -0.2243   -2.6597 H   0  0  0  0  0  0  0  0  0  0  0  0
  1  2  2  0
  2  3  1  0
  3  4  3  0
  4  5  1  0
  5  6  1  0
  6  7  1  0
  7  8  1  0
  8  9  2  0
  2 10  1  0
  5 11  1  0
  5 12  1  0
  6 13  1  0
  6 14  1  0
  7 15  1  0
  7 16  1  0
  8 17  1  0
M  END
