
     RDKit          3D

 15 16  0  0  0  0  0  0  0  0999 V2000
   -2.2488    0.5883   -1.7432 O   0  0  0  0  0  0  0  0  0  0  0  0
   -2.4697   -0.0999   -0.7161 C   0  0  0  0  0  0  0  0  0  0  0  0
   -1.4285   -0.2389    0.2746 C   0  0  0  0  0  0  0  0  0  0  0  0
   -1.6515   -0.9262    1.2986 O   0  0  0  0  0  0  0  0  0  0  0  0
   -0.1354    0.4088    0.0909 C   0  0  0  0  0  0  0  0  0  0  0  0
    0.9055    0.2363    1.1732 C   0  0  0  0  0  0  0  0  0  0  0  0
    1.9319   -0.0331    0.1057 C   0  0  0  0  0  0  0  0  0  0  0  0
    0.8410   -0.0031   -0.9133 C   0  0  0  0  0  0  0  0  0  0  0  0
    0.1411    1.1679   -1.0185 O   0  0  0  0  0  0  0  0  0  0  0  0
   -3.4462   -0.5572   -0.6322 H   0  0  0  0  0  0  0  0  0  0  0  0
    0.7180   -0.6738    1.7582 H   0  0  0  0  0  0  0  0  0  0  0  0
    1.0502    1.1680    1.7489 H   0  0  0  0  0  0  0  0  0  0  0  0
    2.4891   -0.9793    0.1961 H   0  0  0  0  0  0  0  0  0  0  0  0
    2.6477    0.8000   -0.0373 H   0  0  0  0  0  0  0  0  0  0  0  0
    0.6556   -0.8578   -1.5855 H   0  0  0  0  0  0  0  0  0  0  0  0
  1  2  2  0
  2  3  1  0
  3  4  2  0
  3  5  1  0
  5  6  1  0
  6  7  1  0
  7  8  1  0
  8  9  1  0
  8  5  1  0
  9  5  1  0
  2 10  1  0
  6 11  1  0
  6 12  1  0
  7 13  1  0
  7 14  1  0
  8 15  1  0
M  END
