
     RDKit          3D

 16 15  0  0  0  0  0  0  0  0999 V2000
   -0.1402    2.7592    0.0676 O   0  0  0  0  0  0  0  0  0  0  0  0
   -0.1768    1.6947   -0.4872 C   0  0  0  0  0  0  0  0  0  0  0  0
   -0.0487    0.4501    0.3130 C   0  0  0  0  0  0  0  0  0  0  0  0
    0.0987    0.8013    1.6451 O   0  0  0  0  0  0  0  0  0  0  0  0
   -1.3013   -0.3703    0.0997 C   0  0  0  0  0  0  0  0  0  0  0  0
   -1.4317   -0.7103   -1.2289 O   0  0  0  0  0  0  0  0  0  0  0  0
    1.1793   -0.2726   -0.1578 C   0  0  0  0  0  0  0  0  0  0  0  0
    1.4201   -1.4427    0.5723 O   0  0  0  0  0  0  0  0  0  0  0  0
   -0.3031    1.6510   -1.5689 H   0  0  0  0  0  0  0  0  0  0  0  0
    0.7547    0.1620    2.0558 H   0  0  0  0  0  0  0  0  0  0  0  0
   -2.2098    0.1593    0.4477 H   0  0  0  0  0  0  0  0  0  0  0  0
   -1.2046   -1.2838    0.7050 H   0  0  0  0  0  0  0  0  0  0  0  0
   -1.9305   -1.5780   -1.2585 H   0  0  0  0  0  0  0  0  0  0  0  0
    1.1019   -0.5240   -1.2404 H   0  0  0  0  0  0  0  0  0  0  0  0
    2.0432    0.4161   -0.0552 H   0  0  0  0  0  0  0  0  0  0  0  0
    2.1487   -1.9120    0.0907 H   0  0  0  0  0  0  0  0  0  0  0  0
  1  2  2  0
  2  3  1  0
  3  4  1  0
  3  5  1  0
  5  6  1  0
  3  7  1  0
  7  8  1  0
  2  9  1  0
  4 10  1  0
  5 11  1  0
  5 12  1  0
  6 13  1  0
  7 14  1  0
  7 15  1  0
  8 16  1  0
M  END
