
     RDKit          3D

 19 20  0  0  0  0  0  0  0  0999 V2000
   -1.0100   -2.8313    0.2382 O   0  0  0  0  0  0  0  0  0  0  0  0
   -0.9801   -1.7703   -0.3546 C   0  0  0  0  0  0  0  0  0  0  0  0
   -0.8022   -0.4890    0.3292 C   0  0  0  0  0  0  0  0  0  0  0  0
   -1.3953    0.6709   -0.4321 C   0  0  0  0  0  0  0  0  0  0  0  0
   -0.2445    1.4389   -1.0172 C   0  0  0  0  0  0  0  0  0  0  0  0
    0.9694    1.0725   -0.2271 C   0  0  0  0  0  0  0  0  0  0  0  0
    1.9144    0.3653   -0.9500 O   0  0  0  0  0  0  0  0  0  0  0  0
    1.6807   -0.7830   -0.1746 C   0  0  0  0  0  0  0  0  0  0  0  0
    0.6111   -0.1180    0.6162 C   0  0  0  0  0  0  0  0  0  0  0  0
   -1.0914   -1.8003   -1.4292 H   0  0  0  0  0  0  0  0  0  0  0  0
   -1.3770   -0.5513    1.3004 H   0  0  0  0  0  0  0  0  0  0  0  0
   -2.0299    0.2996   -1.2746 H   0  0  0  0  0  0  0  0  0  0  0  0
   -1.9501    1.3493    0.2313 H   0  0  0  0  0  0  0  0  0  0  0  0
   -0.1091    1.2551   -2.1111 H   0  0  0  0  0  0  0  0  0  0  0  0
   -0.4225    2.5435   -0.9195 H   0  0  0  0  0  0  0  0  0  0  0  0
    1.4126    1.9139    0.3706 H   0  0  0  0  0  0  0  0  0  0  0  0
    1.4317   -1.6819   -0.7297 H   0  0  0  0  0  0  0  0  0  0  0  0
    2.5860   -0.9475    0.4756 H   0  0  0  0  0  0  0  0  0  0  0  0
    0.8063    0.0638    1.6807 H   0  0  0  0  0  0  0  0  0  0  0  0
  1  2  2  0
  2  3  1  0
  3  4  1  0
  4  5  1  0
  5  6  1  0
  6  7  1  0
  7  8  1  0
  8  9  1  0
  9  3  1  0
  9  6  1  0
  2 10  1  0
  3 11  1  0
  4 12  1  0
  4 13  1  0
  5 14  1  0
  5 15  1  0
  6 16  1  0
  8 17  1  0
  8 18  1  0
  9 19  1  0
M  END
