
     RDKit          3D

 17 17  0  0  0  0  0  0  0  0999 V2000
   -3.3267   -0.1996   -0.1930 O   0  0  0  0  0  0  0  0  0  0  0  0
   -2.4191    0.6550   -0.0700 C   0  0  0  0  0  0  0  0  0  0  0  0
   -1.0204    0.3214    0.0909 C   0  0  0  0  0  0  0  0  0  0  0  0
   -0.2219    1.3629    0.2042 C   0  0  0  0  0  0  0  0  0  0  0  0
    1.2393    1.3869    0.3788 C   0  0  0  0  0  0  0  0  0  0  0  0
    2.0667    0.3848    0.1230 C   0  0  0  0  0  0  0  0  0  0  0  0
    1.7432   -0.9513   -0.3803 C   0  0  0  0  0  0  0  0  0  0  0  0
    0.5635   -1.5293   -0.3675 C   0  0  0  0  0  0  0  0  0  0  0  0
   -0.7630   -1.1337    0.0969 C   0  0  0  0  0  0  0  0  0  0  0  0
   -2.7132    1.6906   -0.0870 H   0  0  0  0  0  0  0  0  0  0  0  0
   -0.6589    2.3646    0.1695 H   0  0  0  0  0  0  0  0  0  0  0  0
    1.7112    2.2654    0.7392 H   0  0  0  0  0  0  0  0  0  0  0  0
    3.1352    0.5499    0.3022 H   0  0  0  0  0  0  0  0  0  0  0  0
    2.5741   -1.5264   -0.8120 H   0  0  0  0  0  0  0  0  0  0  0  0
    0.6050   -2.5381   -0.8108 H   0  0  0  0  0  0  0  0  0  0  0  0
   -0.9783   -1.4806    1.1482 H   0  0  0  0  0  0  0  0  0  0  0  0
   -1.5367   -1.6225   -0.5321 H   0  0  0  0  0  0  0  0  0  0  0  0
  1  2  2  0
  2  3  1  0
  3  4  2  0
  4  5  1  0
  5  6  2  0
  6  7  1  0
  7  8  2  0
  8  9  1  0
  9  3  1  0
  2 10  1  0
  4 11  1  0
  5 12  1  0
  6 13  1  0
  7 14  1  0
  8 15  1  0
  9 16  1  0
  9 17  1  0
M  END
