
     RDKit          3D

 19 20  0  0  0  0  0  0  0  0999 V2000
    2.5002    0.1255    1.7341 O   0  0  0  0  0  0  0  0  0  0  0  0
    2.0417   -0.2614    0.6996 C   0  0  0  0  0  0  0  0  0  0  0  0
    1.2549    0.5667   -0.2509 C   0  0  0  0  0  0  0  0  0  0  0  0
    0.1150    1.3089    0.4692 C   0  0  0  0  0  0  0  0  0  0  0  0
   -1.1181    0.7496   -0.1067 C   0  0  0  0  0  0  0  0  0  0  0  0
   -2.0891   -0.1647    0.3367 C   0  0  0  0  0  0  0  0  0  0  0  0
   -0.8361   -0.7803    0.0830 C   0  0  0  0  0  0  0  0  0  0  0  0
   -0.0997   -1.1156   -1.1390 C   0  0  0  0  0  0  0  0  0  0  0  0
    0.8465   -0.1182   -1.3606 O   0  0  0  0  0  0  0  0  0  0  0  0
    2.2036   -1.3012    0.4146 H   0  0  0  0  0  0  0  0  0  0  0  0
    1.9477    1.3660   -0.6043 H   0  0  0  0  0  0  0  0  0  0  0  0
    0.1710    1.0364    1.5605 H   0  0  0  0  0  0  0  0  0  0  0  0
    0.2208    2.3899    0.4151 H   0  0  0  0  0  0  0  0  0  0  0  0
   -1.2220    1.1074   -1.1780 H   0  0  0  0  0  0  0  0  0  0  0  0
   -2.9463   -0.4278   -0.3494 H   0  0  0  0  0  0  0  0  0  0  0  0
   -2.4727   -0.1063    1.3779 H   0  0  0  0  0  0  0  0  0  0  0  0
   -0.2573   -1.0913    0.9929 H   0  0  0  0  0  0  0  0  0  0  0  0
    0.4681   -2.0683   -1.0455 H   0  0  0  0  0  0  0  0  0  0  0  0
   -0.7282   -1.2153   -2.0491 H   0  0  0  0  0  0  0  0  0  0  0  0
  1  2  2  0
  2  3  1  0
  3  4  1  0
  4  5  1  0
  5  6  1  0
  6  7  1  0
  7  8  1  0
  8  9  1  0
  9  3  1  0
  7  5  1  0
  2 10  1  0
  3 11  1  0
  4 12  1  0
  4 13  1  0
  5 14  1  0
  6 15  1  0
  6 16  1  0
  7 17  1  0
  8 18  1  0
  8 19  1  0
M  END
