
     RDKit          3D

 17 17  0  0  0  0  0  0  0  0999 V2000
   -1.9828   -1.8295    0.3279 O   0  0  0  0  0  0  0  0  0  0  0  0
   -1.9091   -0.7518   -0.2808 C   0  0  0  0  0  0  0  0  0  0  0  0
   -1.2631    0.3608    0.4730 C   0  0  0  0  0  0  0  0  0  0  0  0
   -0.6698    1.3799   -0.4646 C   0  0  0  0  0  0  0  0  0  0  0  0
    0.5220    1.0017   -0.8650 C   0  0  0  0  0  0  0  0  0  0  0  0
    0.8323   -0.3013   -0.2339 C   0  0  0  0  0  0  0  0  0  0  0  0
    2.2697   -0.5320   -0.0252 C   0  0  0  0  0  0  0  0  0  0  0  0
    2.7692   -1.5542   -0.4707 O   0  0  0  0  0  0  0  0  0  0  0  0
    0.0459   -0.2042    1.0515 C   0  0  0  0  0  0  0  0  0  0  0  0
   -2.2936   -0.6420   -1.2937 H   0  0  0  0  0  0  0  0  0  0  0  0
   -1.8956    0.8055    1.2371 H   0  0  0  0  0  0  0  0  0  0  0  0
   -1.1831    2.2968   -0.7531 H   0  0  0  0  0  0  0  0  0  0  0  0
    1.2100    1.5155   -1.5430 H   0  0  0  0  0  0  0  0  0  0  0  0
    0.3655   -1.0855   -0.8751 H   0  0  0  0  0  0  0  0  0  0  0  0
    2.8470    0.1845    0.5034 H   0  0  0  0  0  0  0  0  0  0  0  0
    0.5372    0.5200    1.7125 H   0  0  0  0  0  0  0  0  0  0  0  0
   -0.2017   -1.1642    1.4997 H   0  0  0  0  0  0  0  0  0  0  0  0
  1  2  2  0
  2  3  1  0
  3  4  1  0
  4  5  2  0
  5  6  1  0
  6  7  1  0
  7  8  2  0
  6  9  1  0
  9  3  1  0
  2 10  1  0
  3 11  1  0
  4 12  1  0
  5 13  1  0
  6 14  1  0
  7 15  1  0
  9 16  1  0
  9 17  1  0
M  END
