
     RDKit          3D

 19 21  0  0  0  0  0  0  0  0999 V2000
    3.0437    1.2499    0.6742 O   0  0  0  0  0  0  0  0  0  0  0  0
    2.7399    0.6625   -0.3418 C   0  0  0  0  0  0  0  0  0  0  0  0
    1.4344    0.0251   -0.4386 C   0  0  0  0  0  0  0  0  0  0  0  0
    0.6849   -0.4737    0.7318 C   0  0  0  0  0  0  0  0  0  0  0  0
   -0.4741   -1.3926    0.4919 C   0  0  0  0  0  0  0  0  0  0  0  0
   -1.4456   -0.6670   -0.4032 C   0  0  0  0  0  0  0  0  0  0  0  0
   -2.2651    0.4415    0.1686 C   0  0  0  0  0  0  0  0  0  0  0  0
   -0.9924    0.7450   -0.5170 C   0  0  0  0  0  0  0  0  0  0  0  0
    0.3033    0.8326    0.2098 C   0  0  0  0  0  0  0  0  0  0  0  0
    3.4420    0.6234   -1.1538 H   0  0  0  0  0  0  0  0  0  0  0  0
    1.2187   -0.4960   -1.3953 H   0  0  0  0  0  0  0  0  0  0  0  0
    1.1867   -0.6177    1.7126 H   0  0  0  0  0  0  0  0  0  0  0  0
   -0.1759   -2.3312   -0.0323 H   0  0  0  0  0  0  0  0  0  0  0  0
   -1.0079   -1.6250    1.4450 H   0  0  0  0  0  0  0  0  0  0  0  0
   -1.8240   -1.1717   -1.3258 H   0  0  0  0  0  0  0  0  0  0  0  0
   -2.2728    0.5804    1.2736 H   0  0  0  0  0  0  0  0  0  0  0  0
   -3.1980    0.7349   -0.3477 H   0  0  0  0  0  0  0  0  0  0  0  0
   -0.9672    1.1538   -1.5514 H   0  0  0  0  0  0  0  0  0  0  0  0
    0.5695    1.7260    0.7994 H   0  0  0  0  0  0  0  0  0  0  0  0
  1  2  2  0
  2  3  1  0
  3  4  1  0
  4  5  1  0
  5  6  1  0
  6  7  1  0
  7  8  1  0
  8  9  1  0
  9  3  1  0
  9  4  1  0
  8  6  1  0
  2 10  1  0
  3 11  1  0
  4 12  1  0
  5 13  1  0
  5 14  1  0
  6 15  1  0
  7 16  1  0
  7 17  1  0
  8 18  1  0
  9 19  1  0
M  END
