
     RDKit          3D

 19 21  0  0  0  0  0  0  0  0999 V2000
    2.6962    1.8712    0.9309 O   0  0  0  0  0  0  0  0  0  0  0  0
    2.1294    0.7949    0.8681 C   0  0  0  0  0  0  0  0  0  0  0  0
    1.3121    0.5062   -0.3136 C   0  0  0  0  0  0  0  0  0  0  0  0
    1.3444   -0.9596   -0.8529 C   0  0  0  0  0  0  0  0  0  0  0  0
    0.1597   -0.4101   -0.2839 C   0  0  0  0  0  0  0  0  0  0  0  0
   -0.5370   -0.8247    0.9523 C   0  0  0  0  0  0  0  0  0  0  0  0
   -1.8456   -0.3294    0.3377 C   0  0  0  0  0  0  0  0  0  0  0  0
   -1.8802    1.0580   -0.2424 C   0  0  0  0  0  0  0  0  0  0  0  0
   -1.0954   -0.0226   -0.9407 C   0  0  0  0  0  0  0  0  0  0  0  0
    2.2583    0.1111    1.6845 H   0  0  0  0  0  0  0  0  0  0  0  0
    1.2563    1.2958   -1.0932 H   0  0  0  0  0  0  0  0  0  0  0  0
    2.0070   -1.6236   -0.2683 H   0  0  0  0  0  0  0  0  0  0  0  0
    1.4936   -1.0314   -1.9361 H   0  0  0  0  0  0  0  0  0  0  0  0
   -0.3372   -0.2710    1.8817 H   0  0  0  0  0  0  0  0  0  0  0  0
   -0.6068   -1.9360    1.0944 H   0  0  0  0  0  0  0  0  0  0  0  0
   -2.7185   -0.9736    0.3313 H   0  0  0  0  0  0  0  0  0  0  0  0
   -1.3334    1.8081    0.3654 H   0  0  0  0  0  0  0  0  0  0  0  0
   -2.8594    1.3671   -0.6167 H   0  0  0  0  0  0  0  0  0  0  0  0
   -1.4436   -0.4305   -1.8985 H   0  0  0  0  0  0  0  0  0  0  0  0
  1  2  2  0
  2  3  1  0
  3  4  1  0
  4  5  1  0
  5  6  1  0
  6  7  1  0
  7  8  1  0
  8  9  1  0
  5  3  1  0
  9  7  1  0
  9  5  1  0
  2 10  1  0
  3 11  1  0
  4 12  1  0
  4 13  1  0
  6 14  1  0
  6 15  1  0
  7 16  1  0
  8 17  1  0
  8 18  1  0
  9 19  1  0
M  END
