
     RDKit          3D

 15 14  0  0  0  0  0  0  0  0999 V2000
   -1.2447    0.4955   -1.8557 O   0  0  0  0  0  0  0  0  0  0  0  0
   -1.6557    1.0605   -0.8636 C   0  0  0  0  0  0  0  0  0  0  0  0
   -1.4786    0.3596    0.4532 C   0  0  0  0  0  0  0  0  0  0  0  0
   -0.8018   -0.9565    0.2909 C   0  0  0  0  0  0  0  0  0  0  0  0
    0.4796   -0.8936   -0.2733 O   0  0  0  0  0  0  0  0  0  0  0  0
    1.5376   -0.1979    0.2838 C   0  0  0  0  0  0  0  0  0  0  0  0
    1.3168    0.4006    1.3490 O   0  0  0  0  0  0  0  0  0  0  0  0
    2.8585   -0.1360   -0.3024 C   0  0  0  0  0  0  0  0  0  0  0  0
    3.1524   -0.7150   -1.3746 O   0  0  0  0  0  0  0  0  0  0  0  0
   -2.1259    2.0220   -0.9308 H   0  0  0  0  0  0  0  0  0  0  0  0
   -2.5093    0.1677    0.8189 H   0  0  0  0  0  0  0  0  0  0  0  0
   -1.0012    1.0157    1.2035 H   0  0  0  0  0  0  0  0  0  0  0  0
   -1.4601   -1.6352   -0.2863 H   0  0  0  0  0  0  0  0  0  0  0  0
   -0.6956   -1.4124    1.2969 H   0  0  0  0  0  0  0  0  0  0  0  0
    3.6281    0.4251    0.1904 H   0  0  0  0  0  0  0  0  0  0  0  0
  1  2  2  0
  2  3  1  0
  3  4  1  0
  4  5  1  0
  5  6  1  0
  6  7  2  0
  6  8  1  0
  8  9  2  0
  2 10  1  0
  3 11  1  0
  3 12  1  0
  4 13  1  0
  4 14  1  0
  8 15  1  0
M  END
