
     RDKit          3D

 16 17  0  0  0  0  0  0  0  0999 V2000
    2.3926    1.4085   -0.1496 O   0  0  0  0  0  0  0  0  0  0  0  0
    1.1775    1.4862    0.0334 C   0  0  0  0  0  0  0  0  0  0  0  0
    0.4727    0.2287    0.3498 C   0  0  0  0  0  0  0  0  0  0  0  0
    1.2116   -1.0424    0.4424 C   0  0  0  0  0  0  0  0  0  0  0  0
    0.3196   -0.7993   -0.7018 C   0  0  0  0  0  0  0  0  0  0  0  0
   -1.1808   -0.8424   -0.4450 C   0  0  0  0  0  0  0  0  0  0  0  0
   -0.9871    0.1968    0.6173 C   0  0  0  0  0  0  0  0  0  0  0  0
   -1.6101    1.4018    0.4420 O   0  0  0  0  0  0  0  0  0  0  0  0
    0.6760    2.4225   -0.0370 H   0  0  0  0  0  0  0  0  0  0  0  0
    2.2935   -1.0697    0.2202 H   0  0  0  0  0  0  0  0  0  0  0  0
    0.8413   -1.7513    1.2358 H   0  0  0  0  0  0  0  0  0  0  0  0
    0.6767   -0.5537   -1.7127 H   0  0  0  0  0  0  0  0  0  0  0  0
   -1.4366   -1.8677   -0.0842 H   0  0  0  0  0  0  0  0  0  0  0  0
   -1.7514   -0.5313   -1.3369 H   0  0  0  0  0  0  0  0  0  0  0  0
   -1.1994   -0.2661    1.6227 H   0  0  0  0  0  0  0  0  0  0  0  0
   -1.8959    1.5795   -0.4963 H   0  0  0  0  0  0  0  0  0  0  0  0
  1  2  2  0
  2  3  1  0
  3  4  1  0
  4  5  1  0
  5  6  1  0
  6  7  1  0
  7  8  1  0
  5  3  1  0
  7  3  1  0
  2  9  1  0
  4 10  1  0
  4 11  1  0
  5 12  1  0
  6 13  1  0
  6 14  1  0
  7 15  1  0
  8 16  1  0
M  END
