
     RDKit          3D

 17 18  0  0  0  0  0  0  0  0999 V2000
   -2.5927   -0.9404    0.8037 O   0  0  0  0  0  0  0  0  0  0  0  0
   -1.9373   -0.4040   -0.1042 C   0  0  0  0  0  0  0  0  0  0  0  0
   -0.5839   -0.0658    0.0978 C   0  0  0  0  0  0  0  0  0  0  0  0
   -0.1693    1.1814    0.8141 C   0  0  0  0  0  0  0  0  0  0  0  0
    1.2376    0.9852    0.8443 O   0  0  0  0  0  0  0  0  0  0  0  0
    1.4079   -0.1765    0.1403 C   0  0  0  0  0  0  0  0  0  0  0  0
    0.3461   -1.0836    0.7806 C   0  0  0  0  0  0  0  0  0  0  0  0
    0.4157   -0.1179   -1.0336 C   0  0  0  0  0  0  0  0  0  0  0  0
    0.5526    1.0655   -1.7359 O   0  0  0  0  0  0  0  0  0  0  0  0
   -2.5281   -0.2437   -1.0235 H   0  0  0  0  0  0  0  0  0  0  0  0
   -0.5937    1.2626    1.8143 H   0  0  0  0  0  0  0  0  0  0  0  0
   -0.3606    2.0945    0.2199 H   0  0  0  0  0  0  0  0  0  0  0  0
    2.3617   -0.5915   -0.0448 H   0  0  0  0  0  0  0  0  0  0  0  0
    0.3044   -1.0463    1.8673 H   0  0  0  0  0  0  0  0  0  0  0  0
    0.2265   -2.0540    0.2829 H   0  0  0  0  0  0  0  0  0  0  0  0
    0.4555   -1.0406   -1.6123 H   0  0  0  0  0  0  0  0  0  0  0  0
    1.4577    1.1750   -2.1108 H   0  0  0  0  0  0  0  0  0  0  0  0
  1  2  2  0
  2  3  1  0
  3  4  1  0
  4  5  1  0
  5  6  1  0
  6  7  1  0
  6  8  1  0
  8  9  1  0
  7  3  1  0
  8  3  1  0
  2 10  1  0
  4 11  1  0
  4 12  1  0
  6 13  1  0
  7 14  1  0
  7 15  1  0
  8 16  1  0
  9 17  1  0
M  END
