
     RDKit          3D

 12 11  0  0  0  0  0  0  0  0999 V2000
    3.8874    1.0100   -1.0231 O   0  0  0  0  0  0  0  0  0  0  0  0
    3.2412    0.5840   -0.0312 C   0  0  0  0  0  0  0  0  0  0  0  0
    1.8525    0.2854   -0.2138 C   0  0  0  0  0  0  0  0  0  0  0  0
    0.6836    0.0225   -0.3528 C   0  0  0  0  0  0  0  0  0  0  0  0
   -0.7428   -0.2783   -0.5136 C   0  0  0  0  0  0  0  0  0  0  0  0
   -1.3719   -0.1478    0.7623 O   0  0  0  0  0  0  0  0  0  0  0  0
   -2.7335   -0.3764    0.9084 C   0  0  0  0  0  0  0  0  0  0  0  0
   -3.3628   -0.6987   -0.1331 O   0  0  0  0  0  0  0  0  0  0  0  0
    3.7699    0.4709    0.8894 H   0  0  0  0  0  0  0  0  0  0  0  0
   -0.8972   -1.2700   -0.9471 H   0  0  0  0  0  0  0  0  0  0  0  0
   -1.1392    0.4868   -1.2280 H   0  0  0  0  0  0  0  0  0  0  0  0
   -3.1872   -0.2718    1.8826 H   0  0  0  0  0  0  0  0  0  0  0  0
  1  2  2  0
  2  3  1  0
  3  4  3  0
  4  5  1  0
  5  6  1  0
  6  7  1  0
  7  8  2  0
  2  9  1  0
  5 10  1  0
  5 11  1  0
  7 12  1  0
M  END
