
     RDKit          3D

 17 16  0  0  0  0  0  0  0  0999 V2000
   -4.3379    0.3724    0.3415 O   0  0  0  0  0  0  0  0  0  0  0  0
   -3.1227    0.4837    0.4248 C   0  0  0  0  0  0  0  0  0  0  0  0
   -2.1667   -0.3531   -0.3506 C   0  0  0  0  0  0  0  0  0  0  0  0
   -0.7540    0.0355    0.0063 C   0  0  0  0  0  0  0  0  0  0  0  0
   -0.4203    1.2376   -0.0075 O   0  0  0  0  0  0  0  0  0  0  0  0
    0.1692   -0.9198    0.3502 O   0  0  0  0  0  0  0  0  0  0  0  0
    1.4748   -0.6634    0.6943 C   0  0  0  0  0  0  0  0  0  0  0  0
    2.3653   -0.0807   -0.3506 C   0  0  0  0  0  0  0  0  0  0  0  0
    2.0075    1.1261   -0.8668 O   0  0  0  0  0  0  0  0  0  0  0  0
   -2.7435    1.2212    1.0947 H   0  0  0  0  0  0  0  0  0  0  0  0
   -2.3279   -1.4084   -0.1234 H   0  0  0  0  0  0  0  0  0  0  0  0
   -2.3224   -0.1931   -1.4451 H   0  0  0  0  0  0  0  0  0  0  0  0
    1.5714   -0.0722    1.6614 H   0  0  0  0  0  0  0  0  0  0  0  0
    1.9344   -1.6556    0.9841 H   0  0  0  0  0  0  0  0  0  0  0  0
    3.3789    0.0340    0.1324 H   0  0  0  0  0  0  0  0  0  0  0  0
    2.4883   -0.8106   -1.1973 H   0  0  0  0  0  0  0  0  0  0  0  0
    2.8054    1.6466   -1.1610 H   0  0  0  0  0  0  0  0  0  0  0  0
  1  2  2  0
  2  3  1  0
  3  4  1  0
  4  5  2  0
  4  6  1  0
  6  7  1  0
  7  8  1  0
  8  9  1  0
  2 10  1  0
  3 11  1  0
  3 12  1  0
  7 13  1  0
  7 14  1  0
  8 15  1  0
  8 16  1  0
  9 17  1  0
M  END
