
     RDKit          3D

 14 15  0  0  0  0  0  0  0  0999 V2000
    2.2336    1.2789    0.0432 O   0  0  0  0  0  0  0  0  0  0  0  0
    2.1868    0.0936    0.3876 C   0  0  0  0  0  0  0  0  0  0  0  0
    0.9557   -0.6995    0.3146 C   0  0  0  0  0  0  0  0  0  0  0  0
    0.5031   -0.8017   -1.1002 O   0  0  0  0  0  0  0  0  0  0  0  0
   -0.2379   -0.2227   -0.1068 C   0  0  0  0  0  0  0  0  0  0  0  0
   -0.8152    1.1188   -0.2555 C   0  0  0  0  0  0  0  0  0  0  0  0
   -2.0508    0.5260   -0.6038 O   0  0  0  0  0  0  0  0  0  0  0  0
   -1.6456   -0.5884    0.1572 C   0  0  0  0  0  0  0  0  0  0  0  0
    3.1222   -0.3144    0.7467 H   0  0  0  0  0  0  0  0  0  0  0  0
    1.0871   -1.7581    0.6660 H   0  0  0  0  0  0  0  0  0  0  0  0
   -0.9418    1.7501    0.6355 H   0  0  0  0  0  0  0  0  0  0  0  0
   -0.4479    1.6796   -1.1328 H   0  0  0  0  0  0  0  0  0  0  0  0
   -1.9478   -1.5629   -0.2682 H   0  0  0  0  0  0  0  0  0  0  0  0
   -2.0015   -0.4994    1.1928 H   0  0  0  0  0  0  0  0  0  0  0  0
  1  2  2  0
  2  3  1  0
  3  4  1  0
  4  5  1  0
  5  6  1  0
  6  7  1  0
  7  8  1  0
  5  3  1  0
  8  5  1  0
  2  9  1  0
  3 10  1  0
  6 11  1  0
  6 12  1  0
  8 13  1  0
  8 14  1  0
M  END
