
     RDKit          3D

 17 17  0  0  0  0  0  0  0  0999 V2000
    2.1418   -1.0664   -1.1904 O   0  0  0  0  0  0  0  0  0  0  0  0
    2.2545   -0.1137   -0.4460 C   0  0  0  0  0  0  0  0  0  0  0  0
    1.1980    0.9279   -0.4556 C   0  0  0  0  0  0  0  0  0  0  0  0
    0.0536    0.3967    0.3514 C   0  0  0  0  0  0  0  0  0  0  0  0
   -0.5011   -0.8898   -0.2248 C   0  0  0  0  0  0  0  0  0  0  0  0
   -1.7611   -1.0031    0.5954 C   0  0  0  0  0  0  0  0  0  0  0  0
   -2.2182    0.3492    0.6168 O   0  0  0  0  0  0  0  0  0  0  0  0
   -1.1785    1.2164    0.3058 C   0  0  0  0  0  0  0  0  0  0  0  0
   -1.2184    2.4366    0.0357 O   0  0  0  0  0  0  0  0  0  0  0  0
    3.0893    0.0056    0.2209 H   0  0  0  0  0  0  0  0  0  0  0  0
    0.8127    1.0287   -1.5113 H   0  0  0  0  0  0  0  0  0  0  0  0
    1.6161    1.8619   -0.1051 H   0  0  0  0  0  0  0  0  0  0  0  0
    0.3024    0.2918    1.4291 H   0  0  0  0  0  0  0  0  0  0  0  0
   -0.7804   -0.6605   -1.2766 H   0  0  0  0  0  0  0  0  0  0  0  0
    0.1707   -1.7490   -0.1272 H   0  0  0  0  0  0  0  0  0  0  0  0
   -2.5175   -1.6858    0.1619 H   0  0  0  0  0  0  0  0  0  0  0  0
   -1.4638   -1.3466    1.6203 H   0  0  0  0  0  0  0  0  0  0  0  0
  1  2  2  0
  2  3  1  0
  3  4  1  0
  4  5  1  0
  5  6  1  0
  6  7  1  0
  7  8  1  0
  8  9  2  0
  8  4  1  0
  2 10  1  0
  3 11  1  0
  3 12  1  0
  4 13  1  0
  5 14  1  0
  5 15  1  0
  6 16  1  0
  6 17  1  0
M  END
