
     RDKit          3D

 15 18  0  0  0  0  0  0  0  0999 V2000
   -2.9362   -0.7260   -0.8422 O   0  0  0  0  0  0  0  0  0  0  0  0
   -2.1839   -0.3290    0.0322 C   0  0  0  0  0  0  0  0  0  0  0  0
   -0.8515    0.0151   -0.1917 C   0  0  0  0  0  0  0  0  0  0  0  0
   -0.0919    1.2220   -0.1507 C   0  0  0  0  0  0  0  0  0  0  0  0
    1.0165    0.5415   -0.8821 C   0  0  0  0  0  0  0  0  0  0  0  0
    0.2404   -0.6870   -0.8767 C   0  0  0  0  0  0  0  0  0  0  0  0
    1.1418   -0.4086    0.2092 C   0  0  0  0  0  0  0  0  0  0  0  0
    2.1984   -1.0554    0.6549 O   0  0  0  0  0  0  0  0  0  0  0  0
    0.1027    0.3190    0.9428 C   0  0  0  0  0  0  0  0  0  0  0  0
   -2.6400   -0.2586    1.0375 H   0  0  0  0  0  0  0  0  0  0  0  0
   -0.3490    2.2402   -0.2038 H   0  0  0  0  0  0  0  0  0  0  0  0
    1.7026    0.9419   -1.5527 H   0  0  0  0  0  0  0  0  0  0  0  0
    0.1961   -1.4716   -1.5769 H   0  0  0  0  0  0  0  0  0  0  0  0
    2.6018   -0.6687    1.4449 H   0  0  0  0  0  0  0  0  0  0  0  0
   -0.1477    0.3251    1.9555 H   0  0  0  0  0  0  0  0  0  0  0  0
  1  2  2  0
  2  3  1  0
  3  4  1  0
  4  5  1  0
  5  6  1  0
  6  7  1  0
  7  8  1  0
  7  9  1  0
  6  3  1  0
  9  3  1  0
  9  4  1  0
  7  5  1  0
  2 10  1  0
  4 11  1  0
  5 12  1  0
  6 13  1  0
  8 14  1  0
  9 15  1  0
M  END
