
     RDKit          3D

 16 17  0  0  0  0  0  0  0  0999 V2000
    2.5571   -0.5190   -1.5013 O   0  0  0  0  0  0  0  0  0  0  0  0
    2.2274    0.0031   -0.4441 C   0  0  0  0  0  0  0  0  0  0  0  0
    0.8455    0.1383    0.0162 C   0  0  0  0  0  0  0  0  0  0  0  0
   -0.0090   -1.1072   -0.2670 C   0  0  0  0  0  0  0  0  0  0  0  0
   -1.2767   -0.7167    0.4958 C   0  0  0  0  0  0  0  0  0  0  0  0
   -1.4398    0.7263    0.0371 C   0  0  0  0  0  0  0  0  0  0  0  0
    0.0011    1.2197    0.0138 C   0  0  0  0  0  0  0  0  0  0  0  0
    0.6637    0.7609    1.2464 O   0  0  0  0  0  0  0  0  0  0  0  0
    3.0378    0.3776    0.1635 H   0  0  0  0  0  0  0  0  0  0  0  0
    0.4548   -2.0136    0.1231 H   0  0  0  0  0  0  0  0  0  0  0  0
   -0.1997   -1.1211   -1.3516 H   0  0  0  0  0  0  0  0  0  0  0  0
   -1.0575   -0.7626    1.5670 H   0  0  0  0  0  0  0  0  0  0  0  0
   -2.1287   -1.3453    0.2445 H   0  0  0  0  0  0  0  0  0  0  0  0
   -1.9618    1.3118    0.8237 H   0  0  0  0  0  0  0  0  0  0  0  0
   -1.9145    0.7767   -0.9468 H   0  0  0  0  0  0  0  0  0  0  0  0
    0.2003    2.2713   -0.2204 H   0  0  0  0  0  0  0  0  0  0  0  0
  1  2  2  0
  2  3  1  0
  3  4  1  0
  4  5  1  0
  5  6  1  0
  6  7  1  0
  7  8  1  0
  7  3  1  0
  8  3  1  0
  2  9  1  0
  4 10  1  0
  4 11  1  0
  5 12  1  0
  5 13  1  0
  6 14  1  0
  6 15  1  0
  7 16  1  0
M  END
