
     RDKit          3D

 19 19  0  0  0  0  0  0  0  0999 V2000
    2.2867   -0.5834   -1.4868 O   0  0  0  0  0  0  0  0  0  0  0  0
    2.0629    0.4251   -0.8426 C   0  0  0  0  0  0  0  0  0  0  0  0
    1.3934    0.4010    0.4851 C   0  0  0  0  0  0  0  0  0  0  0  0
    1.0897   -1.0254    0.8745 C   0  0  0  0  0  0  0  0  0  0  0  0
   -0.1791   -1.3027    0.1704 C   0  0  0  0  0  0  0  0  0  0  0  0
   -0.7661   -0.1585   -0.1127 C   0  0  0  0  0  0  0  0  0  0  0  0
   -2.0904   -0.0667   -0.8337 C   0  0  0  0  0  0  0  0  0  0  0  0
   -2.9532    0.5944    0.0467 O   0  0  0  0  0  0  0  0  0  0  0  0
   -0.0077    1.0217    0.3321 C   0  0  0  0  0  0  0  0  0  0  0  0
    2.3538    1.4155   -1.2264 H   0  0  0  0  0  0  0  0  0  0  0  0
    1.9475    0.9519    1.2618 H   0  0  0  0  0  0  0  0  0  0  0  0
    1.8874   -1.7286    0.5734 H   0  0  0  0  0  0  0  0  0  0  0  0
    0.8978   -1.0980    1.9846 H   0  0  0  0  0  0  0  0  0  0  0  0
   -0.5918   -2.3019   -0.0890 H   0  0  0  0  0  0  0  0  0  0  0  0
   -1.9111    0.6377   -1.6736 H   0  0  0  0  0  0  0  0  0  0  0  0
   -2.4577   -1.0503   -1.1428 H   0  0  0  0  0  0  0  0  0  0  0  0
   -2.6118    0.6346    0.9639 H   0  0  0  0  0  0  0  0  0  0  0  0
    0.0055    1.7445   -0.5281 H   0  0  0  0  0  0  0  0  0  0  0  0
   -0.3557    1.4890    1.2435 H   0  0  0  0  0  0  0  0  0  0  0  0
  1  2  2  0
  2  3  1  0
  3  4  1  0
  4  5  1  0
  5  6  2  0
  6  7  1  0
  7  8  1  0
  6  9  1  0
  9  3  1  0
  2 10  1  0
  3 11  1  0
  4 12  1  0
  4 13  1  0
  5 14  1  0
  7 15  1  0
  7 16  1  0
  8 17  1  0
  9 18  1  0
  9 19  1  0
M  END
