
     RDKit          3D

 17 18  0  0  0  0  0  0  0  0999 V2000
    2.4278    0.9187   -0.9514 O   0  0  0  0  0  0  0  0  0  0  0  0
    1.9941    0.4127    0.0698 C   0  0  0  0  0  0  0  0  0  0  0  0
    0.8718   -0.5279   -0.0112 C   0  0  0  0  0  0  0  0  0  0  0  0
   -0.0107   -0.3283   -1.2546 C   0  0  0  0  0  0  0  0  0  0  0  0
   -1.1208   -0.9167   -0.3696 C   0  0  0  0  0  0  0  0  0  0  0  0
   -0.4055   -0.0606    0.6883 C   0  0  0  0  0  0  0  0  0  0  0  0
   -0.5913   -0.3183    1.9610 O   0  0  0  0  0  0  0  0  0  0  0  0
   -0.5914    1.2913    0.0894 C   0  0  0  0  0  0  0  0  0  0  0  0
   -0.2063    1.0254   -1.2508 O   0  0  0  0  0  0  0  0  0  0  0  0
    2.4649    0.6861    1.0001 H   0  0  0  0  0  0  0  0  0  0  0  0
    1.1066   -1.5910    0.1167 H   0  0  0  0  0  0  0  0  0  0  0  0
    0.2519   -0.8602   -2.1299 H   0  0  0  0  0  0  0  0  0  0  0  0
   -2.1185   -0.5623   -0.6274 H   0  0  0  0  0  0  0  0  0  0  0  0
   -0.9792   -1.9752   -0.1518 H   0  0  0  0  0  0  0  0  0  0  0  0
   -1.4048   -0.7886    2.2515 H   0  0  0  0  0  0  0  0  0  0  0  0
   -0.0038    2.0862    0.5315 H   0  0  0  0  0  0  0  0  0  0  0  0
   -1.6847    1.5087    0.0384 H   0  0  0  0  0  0  0  0  0  0  0  0
  1  2  2  0
  2  3  1  0
  3  4  1  0
  4  5  1  0
  5  6  1  0
  6  7  1  0
  6  8  1  0
  8  9  1  0
  6  3  1  0
  9  4  1  0
  2 10  1  0
  3 11  1  0
  4 12  1  0
  5 13  1  0
  5 14  1  0
  7 15  1  0
  8 16  1  0
  8 17  1  0
M  END
