
     RDKit          3D

 17 17  0  0  0  0  0  0  0  0999 V2000
    2.0789   -0.4467   -1.4372 O   0  0  0  0  0  0  0  0  0  0  0  0
    2.0882   -0.6795   -0.2473 C   0  0  0  0  0  0  0  0  0  0  0  0
    0.9291   -0.5192    0.6530 C   0  0  0  0  0  0  0  0  0  0  0  0
   -0.3008   -0.0274   -0.0549 C   0  0  0  0  0  0  0  0  0  0  0  0
   -0.8198   -0.8645   -1.1349 C   0  0  0  0  0  0  0  0  0  0  0  0
   -0.8755   -0.4410   -2.2839 O   0  0  0  0  0  0  0  0  0  0  0  0
   -1.3897    0.3370    0.9312 C   0  0  0  0  0  0  0  0  0  0  0  0
   -1.7550    1.3710    0.0397 O   0  0  0  0  0  0  0  0  0  0  0  0
   -0.3908    1.4444   -0.2986 C   0  0  0  0  0  0  0  0  0  0  0  0
    3.0140   -1.0319    0.1931 H   0  0  0  0  0  0  0  0  0  0  0  0
    1.1735    0.1386    1.5109 H   0  0  0  0  0  0  0  0  0  0  0  0
    0.6834   -1.5460    1.0464 H   0  0  0  0  0  0  0  0  0  0  0  0
   -1.1662   -1.8783   -0.9400 H   0  0  0  0  0  0  0  0  0  0  0  0
   -1.0323    0.8078    1.8734 H   0  0  0  0  0  0  0  0  0  0  0  0
   -2.1572   -0.4453    1.0575 H   0  0  0  0  0  0  0  0  0  0  0  0
   -0.2095    1.7383   -1.3618 H   0  0  0  0  0  0  0  0  0  0  0  0
    0.1295    2.0427    0.4534 H   0  0  0  0  0  0  0  0  0  0  0  0
  1  2  2  0
  2  3  1  0
  3  4  1  0
  4  5  1  0
  5  6  2  0
  4  7  1  0
  7  8  1  0
  8  9  1  0
  9  4  1  0
  2 10  1  0
  3 11  1  0
  3 12  1  0
  5 13  1  0
  7 14  1  0
  7 15  1  0
  9 16  1  0
  9 17  1  0
M  END
