
     RDKit          3D

 19 19  0  0  0  0  0  0  0  0999 V2000
   -3.0433   -0.2518    0.4848 O   0  0  0  0  0  0  0  0  0  0  0  0
   -2.4078   -0.3289   -0.5448 C   0  0  0  0  0  0  0  0  0  0  0  0
   -0.9489   -0.3033   -0.4971 C   0  0  0  0  0  0  0  0  0  0  0  0
   -0.3415   -1.5526    0.1034 C   0  0  0  0  0  0  0  0  0  0  0  0
    0.9283   -1.1511    0.4540 O   0  0  0  0  0  0  0  0  0  0  0  0
    0.8949    0.1587    0.8435 C   0  0  0  0  0  0  0  0  0  0  0  0
    1.9076    1.0070    0.0617 C   0  0  0  0  0  0  0  0  0  0  0  0
    1.6117    0.9421   -1.2783 O   0  0  0  0  0  0  0  0  0  0  0  0
   -0.4680    0.7184    0.5140 C   0  0  0  0  0  0  0  0  0  0  0  0
   -2.9189   -0.4157   -1.4891 H   0  0  0  0  0  0  0  0  0  0  0  0
   -0.4696   -0.1027   -1.4755 H   0  0  0  0  0  0  0  0  0  0  0  0
   -0.3395   -2.3360   -0.7054 H   0  0  0  0  0  0  0  0  0  0  0  0
   -0.9436   -1.9546    0.9261 H   0  0  0  0  0  0  0  0  0  0  0  0
    1.1136    0.2057    1.9317 H   0  0  0  0  0  0  0  0  0  0  0  0
    1.8544    2.0638    0.3744 H   0  0  0  0  0  0  0  0  0  0  0  0
    2.9087    0.5921    0.2897 H   0  0  0  0  0  0  0  0  0  0  0  0
    2.2236    0.2855   -1.7140 H   0  0  0  0  0  0  0  0  0  0  0  0
   -1.1499    0.7112    1.3876 H   0  0  0  0  0  0  0  0  0  0  0  0
   -0.4118    1.7119    0.0252 H   0  0  0  0  0  0  0  0  0  0  0  0
  1  2  2  0
  2  3  1  0
  3  4  1  0
  4  5  1  0
  5  6  1  0
  6  7  1  0
  7  8  1  0
  6  9  1  0
  9  3  1  0
  2 10  1  0
  3 11  1  0
  4 12  1  0
  4 13  1  0
  6 14  1  0
  7 15  1  0
  7 16  1  0
  8 17  1  0
  9 18  1  0
  9 19  1  0
M  END
