
     RDKit          3D

 17 17  0  0  0  0  0  0  0  0999 V2000
    1.9248   -1.0834    2.0566 O   0  0  0  0  0  0  0  0  0  0  0  0
    1.7293    0.0866    1.8148 C   0  0  0  0  0  0  0  0  0  0  0  0
    1.6102    0.5195    0.4290 C   0  0  0  0  0  0  0  0  0  0  0  0
    0.2761    1.0796    0.0712 C   0  0  0  0  0  0  0  0  0  0  0  0
   -0.4253    0.0769   -0.4431 C   0  0  0  0  0  0  0  0  0  0  0  0
   -1.8183    0.1700   -0.9405 C   0  0  0  0  0  0  0  0  0  0  0  0
   -2.6163   -0.7087   -0.2008 O   0  0  0  0  0  0  0  0  0  0  0  0
    0.4750   -1.1048   -0.4018 C   0  0  0  0  0  0  0  0  0  0  0  0
    1.7320   -0.5142   -0.4958 O   0  0  0  0  0  0  0  0  0  0  0  0
    1.6457    0.7926    2.6215 H   0  0  0  0  0  0  0  0  0  0  0  0
    2.3935    1.2828    0.1594 H   0  0  0  0  0  0  0  0  0  0  0  0
    0.0131    2.1183    0.2340 H   0  0  0  0  0  0  0  0  0  0  0  0
   -1.8650   -0.0839   -2.0311 H   0  0  0  0  0  0  0  0  0  0  0  0
   -2.2509    1.1663   -0.8273 H   0  0  0  0  0  0  0  0  0  0  0  0
   -3.5246   -0.3568   -0.1423 H   0  0  0  0  0  0  0  0  0  0  0  0
    0.3242   -1.7208    0.4951 H   0  0  0  0  0  0  0  0  0  0  0  0
    0.3765   -1.7198   -1.3437 H   0  0  0  0  0  0  0  0  0  0  0  0
  1  2  2  0
  2  3  1  0
  3  4  1  0
  4  5  2  0
  5  6  1  0
  6  7  1  0
  5  8  1  0
  8  9  1  0
  9  3  1  0
  2 10  1  0
  3 11  1  0
  4 12  1  0
  6 13  1  0
  6 14  1  0
  7 15  1  0
  8 16  1  0
  8 17  1  0
M  END
