
     RDKit          3D

 17 16  0  0  0  0  0  0  0  0999 V2000
   -2.8851   -0.3800    1.2890 O   0  0  0  0  0  0  0  0  0  0  0  0
   -2.5545    0.4417    0.4528 C   0  0  0  0  0  0  0  0  0  0  0  0
   -1.2029    0.4527   -0.1372 C   0  0  0  0  0  0  0  0  0  0  0  0
   -0.3250   -0.6525    0.4195 C   0  0  0  0  0  0  0  0  0  0  0  0
   -0.8826   -1.8987    0.1605 O   0  0  0  0  0  0  0  0  0  0  0  0
    0.9816   -0.5614   -0.2687 C   0  0  0  0  0  0  0  0  0  0  0  0
    1.3686   -1.4989   -0.9141 O   0  0  0  0  0  0  0  0  0  0  0  0
    1.8157    0.6909   -0.1612 C   0  0  0  0  0  0  0  0  0  0  0  0
    2.9515    0.4717   -0.8958 O   0  0  0  0  0  0  0  0  0  0  0  0
   -3.2548    1.1929    0.1192 H   0  0  0  0  0  0  0  0  0  0  0  0
   -1.2518    0.3309   -1.2316 H   0  0  0  0  0  0  0  0  0  0  0  0
   -0.7637    1.4484    0.0822 H   0  0  0  0  0  0  0  0  0  0  0  0
   -0.2305   -0.5760    1.5268 H   0  0  0  0  0  0  0  0  0  0  0  0
   -0.7080   -2.1583   -0.7912 H   0  0  0  0  0  0  0  0  0  0  0  0
    1.9953    0.8693    0.9118 H   0  0  0  0  0  0  0  0  0  0  0  0
    1.1796    1.5213   -0.5542 H   0  0  0  0  0  0  0  0  0  0  0  0
    3.7666    0.3061   -0.3742 H   0  0  0  0  0  0  0  0  0  0  0  0
  1  2  2  0
  2  3  1  0
  3  4  1  0
  4  5  1  0
  4  6  1  0
  6  7  2  0
  6  8  1  0
  8  9  1  0
  2 10  1  0
  3 11  1  0
  3 12  1  0
  4 13  1  0
  5 14  1  0
  8 15  1  0
  8 16  1  0
  9 17  1  0
M  END
