
     RDKit          3D

 17 17  0  0  0  0  0  0  0  0999 V2000
    2.9134    0.6342   -0.3804 O   0  0  0  0  0  0  0  0  0  0  0  0
    2.3808    0.3557    0.7245 C   0  0  0  0  0  0  0  0  0  0  0  0
    1.0646   -0.2605    0.8311 C   0  0  0  0  0  0  0  0  0  0  0  0
    0.6170   -0.5010    1.9875 O   0  0  0  0  0  0  0  0  0  0  0  0
    0.2701   -0.5974   -0.3750 C   0  0  0  0  0  0  0  0  0  0  0  0
   -1.0517   -1.2239    0.0133 C   0  0  0  0  0  0  0  0  0  0  0  0
   -1.6773    0.1548   -0.1324 C   0  0  0  0  0  0  0  0  0  0  0  0
   -0.4961    0.5316   -0.9896 C   0  0  0  0  0  0  0  0  0  0  0  0
   -0.0351    1.7984   -0.7670 O   0  0  0  0  0  0  0  0  0  0  0  0
    2.9419    0.5926    1.6139 H   0  0  0  0  0  0  0  0  0  0  0  0
    0.7848   -1.2510   -1.1049 H   0  0  0  0  0  0  0  0  0  0  0  0
   -1.4445   -1.9731   -0.7102 H   0  0  0  0  0  0  0  0  0  0  0  0
   -1.0954   -1.6072    1.0624 H   0  0  0  0  0  0  0  0  0  0  0  0
   -2.6417    0.1608   -0.6729 H   0  0  0  0  0  0  0  0  0  0  0  0
   -1.6698    0.6722    0.8441 H   0  0  0  0  0  0  0  0  0  0  0  0
   -0.6631    0.3603   -2.0875 H   0  0  0  0  0  0  0  0  0  0  0  0
   -0.1980    2.1534    0.1433 H   0  0  0  0  0  0  0  0  0  0  0  0
  1  2  2  0
  2  3  1  0
  3  4  2  0
  3  5  1  0
  5  6  1  0
  6  7  1  0
  7  8  1  0
  8  9  1  0
  8  5  1  0
  2 10  1  0
  5 11  1  0
  6 12  1  0
  6 13  1  0
  7 14  1  0
  7 15  1  0
  8 16  1  0
  9 17  1  0
M  END
