
     RDKit          3D

 19 20  0  0  0  0  0  0  0  0999 V2000
    2.9864   -0.5643    0.7276 O   0  0  0  0  0  0  0  0  0  0  0  0
    2.7908    0.6229    0.5275 C   0  0  0  0  0  0  0  0  0  0  0  0
    1.5626    1.0162   -0.2155 C   0  0  0  0  0  0  0  0  0  0  0  0
    0.7356   -0.1776   -0.6098 C   0  0  0  0  0  0  0  0  0  0  0  0
    0.1944   -1.0942    0.4578 C   0  0  0  0  0  0  0  0  0  0  0  0
   -0.6674   -0.1784   -0.2311 C   0  0  0  0  0  0  0  0  0  0  0  0
   -1.8049   -0.4680   -1.1104 C   0  0  0  0  0  0  0  0  0  0  0  0
   -2.5297    0.1419    0.0969 C   0  0  0  0  0  0  0  0  0  0  0  0
   -1.3415    0.8767    0.3240 O   0  0  0  0  0  0  0  0  0  0  0  0
    3.4472    1.4173    0.8515 H   0  0  0  0  0  0  0  0  0  0  0  0
    0.9710    1.7903    0.3156 H   0  0  0  0  0  0  0  0  0  0  0  0
    1.8838    1.5055   -1.1769 H   0  0  0  0  0  0  0  0  0  0  0  0
    1.0140   -0.7067   -1.5596 H   0  0  0  0  0  0  0  0  0  0  0  0
    0.2067   -2.1949    0.2669 H   0  0  0  0  0  0  0  0  0  0  0  0
    0.5147   -0.8566    1.5043 H   0  0  0  0  0  0  0  0  0  0  0  0
   -2.1046   -1.4889   -1.3139 H   0  0  0  0  0  0  0  0  0  0  0  0
   -1.8222    0.2354   -1.9939 H   0  0  0  0  0  0  0  0  0  0  0  0
   -2.6343   -0.6153    0.8896 H   0  0  0  0  0  0  0  0  0  0  0  0
   -3.4026    0.7389   -0.1508 H   0  0  0  0  0  0  0  0  0  0  0  0
  1  2  2  0
  2  3  1  0
  3  4  1  0
  4  5  1  0
  5  6  1  0
  6  7  1  0
  7  8  1  0
  8  9  1  0
  6  4  1  0
  9  6  1  0
  2 10  1  0
  3 11  1  0
  3 12  1  0
  4 13  1  0
  5 14  1  0
  5 15  1  0
  7 16  1  0
  7 17  1  0
  8 18  1  0
  8 19  1  0
M  END
