
     RDKit          3D

 17 17  0  0  0  0  0  0  0  0999 V2000
    2.7902   -0.8644   -0.8933 O   0  0  0  0  0  0  0  0  0  0  0  0
    2.4137   -0.2803    0.1209 C   0  0  0  0  0  0  0  0  0  0  0  0
    1.2643    0.6286    0.0538 C   0  0  0  0  0  0  0  0  0  0  0  0
    0.0536    0.0107   -0.6199 C   0  0  0  0  0  0  0  0  0  0  0  0
   -1.0323    1.0201   -0.6469 C   0  0  0  0  0  0  0  0  0  0  0  0
   -2.0402    0.6892    0.1069 C   0  0  0  0  0  0  0  0  0  0  0  0
   -1.7741   -0.5776    0.7368 C   0  0  0  0  0  0  0  0  0  0  0  0
   -2.5054   -1.1209    1.6235 O   0  0  0  0  0  0  0  0  0  0  0  0
   -0.5105   -1.1209    0.1710 C   0  0  0  0  0  0  0  0  0  0  0  0
    2.9700   -0.4746    1.0600 H   0  0  0  0  0  0  0  0  0  0  0  0
    1.0261    0.9967    1.0756 H   0  0  0  0  0  0  0  0  0  0  0  0
    1.5624    1.5373   -0.5392 H   0  0  0  0  0  0  0  0  0  0  0  0
    0.3152   -0.2389   -1.6639 H   0  0  0  0  0  0  0  0  0  0  0  0
   -0.9423    1.9361   -1.2399 H   0  0  0  0  0  0  0  0  0  0  0  0
   -2.9627    1.2944    0.2397 H   0  0  0  0  0  0  0  0  0  0  0  0
    0.1711   -1.5030    0.9610 H   0  0  0  0  0  0  0  0  0  0  0  0
   -0.7993   -1.9324   -0.5461 H   0  0  0  0  0  0  0  0  0  0  0  0
  1  2  2  0
  2  3  1  0
  3  4  1  0
  4  5  1  0
  5  6  2  0
  6  7  1  0
  7  8  2  0
  7  9  1  0
  9  4  1  0
  2 10  1  0
  3 11  1  0
  3 12  1  0
  4 13  1  0
  5 14  1  0
  6 15  1  0
  9 16  1  0
  9 17  1  0
M  END
