
     RDKit          3D

 16 16  0  0  0  0  0  0  0  0999 V2000
   -1.7762    2.1254    0.4962 O   0  0  0  0  0  0  0  0  0  0  0  0
   -2.0424    0.9557    0.2520 C   0  0  0  0  0  0  0  0  0  0  0  0
   -1.0908    0.0315   -0.3911 C   0  0  0  0  0  0  0  0  0  0  0  0
   -1.7117   -1.2171   -0.5214 O   0  0  0  0  0  0  0  0  0  0  0  0
    0.1528   -0.1907    0.4387 C   0  0  0  0  0  0  0  0  0  0  0  0
    1.2686   -0.7377   -0.4142 C   0  0  0  0  0  0  0  0  0  0  0  0
    2.0797    0.4432    0.0983 C   0  0  0  0  0  0  0  0  0  0  0  0
    0.9230    0.9175    0.6929 O   0  0  0  0  0  0  0  0  0  0  0  0
   -3.0455    0.6389    0.5467 H   0  0  0  0  0  0  0  0  0  0  0  0
   -0.8315    0.3508   -1.4190 H   0  0  0  0  0  0  0  0  0  0  0  0
   -1.9827   -1.4841    0.4038 H   0  0  0  0  0  0  0  0  0  0  0  0
   -0.0055   -0.8039    1.3432 H   0  0  0  0  0  0  0  0  0  0  0  0
    1.1034   -0.6446   -1.5139 H   0  0  0  0  0  0  0  0  0  0  0  0
    1.6426   -1.7209   -0.0738 H   0  0  0  0  0  0  0  0  0  0  0  0
    2.4061    1.1485   -0.6937 H   0  0  0  0  0  0  0  0  0  0  0  0
    2.9101    0.1875    0.7554 H   0  0  0  0  0  0  0  0  0  0  0  0
  1  2  2  0
  2  3  1  0
  3  4  1  0
  3  5  1  0
  5  6  1  0
  6  7  1  0
  7  8  1  0
  8  5  1  0
  2  9  1  0
  3 10  1  0
  4 11  1  0
  5 12  1  0
  6 13  1  0
  6 14  1  0
  7 15  1  0
  7 16  1  0
M  END
