
     RDKit          3D

 19 20  0  0  0  0  0  0  0  0999 V2000
    2.3053    1.9324    0.1593 O   0  0  0  0  0  0  0  0  0  0  0  0
    1.9634    1.0266   -0.5685 C   0  0  0  0  0  0  0  0  0  0  0  0
    0.7135    0.3538   -0.3733 C   0  0  0  0  0  0  0  0  0  0  0  0
   -0.5110    1.2733   -0.3183 C   0  0  0  0  0  0  0  0  0  0  0  0
   -1.5600    0.2586    0.1459 C   0  0  0  0  0  0  0  0  0  0  0  0
   -0.7868   -0.9271    0.6407 C   0  0  0  0  0  0  0  0  0  0  0  0
   -0.2329   -1.6801   -0.5608 C   0  0  0  0  0  0  0  0  0  0  0  0
    0.4160   -0.6577   -1.2486 O   0  0  0  0  0  0  0  0  0  0  0  0
    0.5363   -0.2413    1.0374 C   0  0  0  0  0  0  0  0  0  0  0  0
    2.6282    0.7429   -1.3668 H   0  0  0  0  0  0  0  0  0  0  0  0
   -0.3857    2.0017    0.5198 H   0  0  0  0  0  0  0  0  0  0  0  0
   -0.7496    1.7204   -1.2733 H   0  0  0  0  0  0  0  0  0  0  0  0
   -2.2495    0.6770    0.8801 H   0  0  0  0  0  0  0  0  0  0  0  0
   -2.1221   -0.0160   -0.7866 H   0  0  0  0  0  0  0  0  0  0  0  0
   -1.2200   -1.5206    1.4056 H   0  0  0  0  0  0  0  0  0  0  0  0
   -0.9959   -2.1956   -1.1380 H   0  0  0  0  0  0  0  0  0  0  0  0
    0.5759   -2.3630   -0.1777 H   0  0  0  0  0  0  0  0  0  0  0  0
    1.3083   -0.9563    1.2843 H   0  0  0  0  0  0  0  0  0  0  0  0
    0.3666    0.5711    1.7386 H   0  0  0  0  0  0  0  0  0  0  0  0
  1  2  2  0
  2  3  1  0
  3  4  1  0
  4  5  1  0
  5  6  1  0
  6  7  1  0
  7  8  1  0
  6  9  1  0
  8  3  1  0
  9  3  1  0
  2 10  1  0
  4 11  1  0
  4 12  1  0
  5 13  1  0
  5 14  1  0
  6 15  1  0
  7 16  1  0
  7 17  1  0
  9 18  1  0
  9 19  1  0
M  END
