
     RDKit          3D

 15 15  0  0  0  0  0  0  0  0999 V2000
   -2.4603   -0.4174    1.5532 O   0  0  0  0  0  0  0  0  0  0  0  0
   -2.0171   -0.4361    0.4358 C   0  0  0  0  0  0  0  0  0  0  0  0
   -1.0149    0.5664    0.0313 C   0  0  0  0  0  0  0  0  0  0  0  0
   -0.6868    1.4529    1.0335 O   0  0  0  0  0  0  0  0  0  0  0  0
    0.1842   -0.1756   -0.5109 C   0  0  0  0  0  0  0  0  0  0  0  0
    1.1684    0.6387   -1.0610 O   0  0  0  0  0  0  0  0  0  0  0  0
    2.1154   -0.2697   -0.5899 C   0  0  0  0  0  0  0  0  0  0  0  0
    1.1545   -0.6536    0.4750 C   0  0  0  0  0  0  0  0  0  0  0  0
    1.3143   -1.1270    1.5772 O   0  0  0  0  0  0  0  0  0  0  0  0
   -2.3477   -1.1746   -0.2593 H   0  0  0  0  0  0  0  0  0  0  0  0
   -1.4216    1.1607   -0.8388 H   0  0  0  0  0  0  0  0  0  0  0  0
   -1.2082    2.2848    0.9378 H   0  0  0  0  0  0  0  0  0  0  0  0
   -0.1906   -0.9624   -1.2303 H   0  0  0  0  0  0  0  0  0  0  0  0
    3.0564    0.1887   -0.2296 H   0  0  0  0  0  0  0  0  0  0  0  0
    2.3543   -1.0759   -1.3239 H   0  0  0  0  0  0  0  0  0  0  0  0
  1  2  2  0
  2  3  1  0
  3  4  1  0
  3  5  1  0
  5  6  1  0
  6  7  1  0
  7  8  1  0
  8  9  2  0
  8  5  1  0
  2 10  1  0
  3 11  1  0
  4 12  1  0
  5 13  1  0
  7 14  1  0
  7 15  1  0
M  END
