
     RDKit          3D

 14 13  0  0  0  0  0  0  0  0999 V2000
    1.4665   -1.7280    0.6629 O   0  0  0  0  0  0  0  0  0  0  0  0
    1.7498   -1.1443   -0.4124 C   0  0  0  0  0  0  0  0  0  0  0  0
    1.0530    0.1003   -0.6887 C   0  0  0  0  0  0  0  0  0  0  0  0
    1.3526    0.6917   -1.7736 O   0  0  0  0  0  0  0  0  0  0  0  0
    0.0415    0.6757    0.2276 C   0  0  0  0  0  0  0  0  0  0  0  0
   -0.3721    1.9029   -0.3122 O   0  0  0  0  0  0  0  0  0  0  0  0
   -1.1410   -0.3040    0.2081 C   0  0  0  0  0  0  0  0  0  0  0  0
   -2.2029    0.1951    0.9580 O   0  0  0  0  0  0  0  0  0  0  0  0
    2.4774   -1.5650   -1.0821 H   0  0  0  0  0  0  0  0  0  0  0  0
    0.4405    0.8228    1.2330 H   0  0  0  0  0  0  0  0  0  0  0  0
    0.3555    2.2673   -0.8563 H   0  0  0  0  0  0  0  0  0  0  0  0
   -1.3891   -0.5142   -0.8293 H   0  0  0  0  0  0  0  0  0  0  0  0
   -0.7875   -1.2347    0.6934 H   0  0  0  0  0  0  0  0  0  0  0  0
   -3.0444   -0.1655    0.5855 H   0  0  0  0  0  0  0  0  0  0  0  0
  1  2  2  0
  2  3  1  0
  3  4  2  0
  3  5  1  0
  5  6  1  0
  5  7  1  0
  7  8  1  0
  2  9  1  0
  5 10  1  0
  6 11  1  0
  7 12  1  0
  7 13  1  0
  8 14  1  0
M  END
