
     RDKit          3D

 15 16  0  0  0  0  0  0  0  0999 V2000
   -3.0882   -0.3963    0.0277 O   0  0  0  0  0  0  0  0  0  0  0  0
   -2.0291   -0.4461   -0.5253 C   0  0  0  0  0  0  0  0  0  0  0  0
   -0.7033   -0.4357    0.1398 C   0  0  0  0  0  0  0  0  0  0  0  0
    0.4855   -1.0191   -0.5374 C   0  0  0  0  0  0  0  0  0  0  0  0
    1.6325   -0.1726   -0.0992 C   0  0  0  0  0  0  0  0  0  0  0  0
    2.8142   -0.4375   -0.1435 O   0  0  0  0  0  0  0  0  0  0  0  0
    1.0890    1.0959    0.4211 C   0  0  0  0  0  0  0  0  0  0  0  0
   -0.3299    0.8044    0.8285 C   0  0  0  0  0  0  0  0  0  0  0  0
   -0.6274   -0.3631    1.5159 O   0  0  0  0  0  0  0  0  0  0  0  0
   -2.0187   -0.5051   -1.6194 H   0  0  0  0  0  0  0  0  0  0  0  0
    0.4008   -1.0705   -1.6367 H   0  0  0  0  0  0  0  0  0  0  0  0
    0.6576   -2.0484   -0.1227 H   0  0  0  0  0  0  0  0  0  0  0  0
    1.6887    1.5611    1.2107 H   0  0  0  0  0  0  0  0  0  0  0  0
    1.0601    1.8136   -0.4510 H   0  0  0  0  0  0  0  0  0  0  0  0
   -1.0318    1.6193    0.9917 H   0  0  0  0  0  0  0  0  0  0  0  0
  1  2  2  0
  2  3  1  0
  3  4  1  0
  4  5  1  0
  5  6  2  0
  5  7  1  0
  7  8  1  0
  8  9  1  0
  8  3  1  0
  9  3  1  0
  2 10  1  0
  4 11  1  0
  4 12  1  0
  7 13  1  0
  7 14  1  0
  8 15  1  0
M  END
