
     RDKit          3D

 19 20  0  0  0  0  0  0  0  0999 V2000
    2.2495    1.1098    1.1988 O   0  0  0  0  0  0  0  0  0  0  0  0
    2.4166    0.0342    0.7118 C   0  0  0  0  0  0  0  0  0  0  0  0
    1.7085   -0.6217   -0.3666 C   0  0  0  0  0  0  0  0  0  0  0  0
    0.4839   -0.0122   -0.9216 C   0  0  0  0  0  0  0  0  0  0  0  0
   -0.7082    0.1285   -0.0697 C   0  0  0  0  0  0  0  0  0  0  0  0
   -0.8469    0.9202    1.1682 C   0  0  0  0  0  0  0  0  0  0  0  0
   -2.0876    1.3984    0.6475 O   0  0  0  0  0  0  0  0  0  0  0  0
   -2.0384    0.5557   -0.4640 C   0  0  0  0  0  0  0  0  0  0  0  0
   -1.8026   -0.9087   -0.2098 C   0  0  0  0  0  0  0  0  0  0  0  0
    3.2561   -0.5293    1.1812 H   0  0  0  0  0  0  0  0  0  0  0  0
    2.4502   -0.7628   -1.2245 H   0  0  0  0  0  0  0  0  0  0  0  0
    1.5150   -1.6874   -0.0315 H   0  0  0  0  0  0  0  0  0  0  0  0
    0.1585   -0.6160   -1.8334 H   0  0  0  0  0  0  0  0  0  0  0  0
    0.8052    0.9733   -1.3890 H   0  0  0  0  0  0  0  0  0  0  0  0
   -1.0537    0.2482    2.0448 H   0  0  0  0  0  0  0  0  0  0  0  0
   -0.1666    1.7326    1.3895 H   0  0  0  0  0  0  0  0  0  0  0  0
   -2.3503    0.8746   -1.4534 H   0  0  0  0  0  0  0  0  0  0  0  0
   -1.7242   -1.5422   -1.0842 H   0  0  0  0  0  0  0  0  0  0  0  0
   -2.2652   -1.2953    0.7061 H   0  0  0  0  0  0  0  0  0  0  0  0
  1  2  2  0
  2  3  1  0
  3  4  1  0
  4  5  1  0
  5  6  1  0
  6  7  1  0
  7  8  1  0
  8  9  1  0
  8  5  1  0
  9  5  1  0
  2 10  1  0
  3 11  1  0
  3 12  1  0
  4 13  1  0
  4 14  1  0
  6 15  1  0
  6 16  1  0
  8 17  1  0
  9 18  1  0
  9 19  1  0
M  END
