
     RDKit          3D

 17 18  0  0  0  0  0  0  0  0999 V2000
    2.0914   -1.2944    1.1765 O   0  0  0  0  0  0  0  0  0  0  0  0
    2.2751   -0.2313    0.6260 C   0  0  0  0  0  0  0  0  0  0  0  0
    1.1712    0.4396   -0.0439 C   0  0  0  0  0  0  0  0  0  0  0  0
    0.4154   -0.4862   -0.9888 C   0  0  0  0  0  0  0  0  0  0  0  0
   -0.8512   -0.0608   -0.3474 C   0  0  0  0  0  0  0  0  0  0  0  0
   -1.8759   -1.1014   -0.0912 C   0  0  0  0  0  0  0  0  0  0  0  0
   -2.9773   -0.8044    0.3410 O   0  0  0  0  0  0  0  0  0  0  0  0
   -1.1729    1.3301    0.0007 C   0  0  0  0  0  0  0  0  0  0  0  0
   -0.1081    0.5979    0.7328 C   0  0  0  0  0  0  0  0  0  0  0  0
    3.2628    0.1968    0.6459 H   0  0  0  0  0  0  0  0  0  0  0  0
    1.3973    1.3779   -0.5822 H   0  0  0  0  0  0  0  0  0  0  0  0
    0.6740   -1.5318   -0.8069 H   0  0  0  0  0  0  0  0  0  0  0  0
    0.5491   -0.2331   -2.0643 H   0  0  0  0  0  0  0  0  0  0  0  0
   -1.7048   -2.1588   -0.2704 H   0  0  0  0  0  0  0  0  0  0  0  0
   -2.0951    1.5135    0.5457 H   0  0  0  0  0  0  0  0  0  0  0  0
   -0.8448    2.1940   -0.6292 H   0  0  0  0  0  0  0  0  0  0  0  0
   -0.2062    0.2524    1.7557 H   0  0  0  0  0  0  0  0  0  0  0  0
  1  2  2  0
  2  3  1  0
  3  4  1  0
  4  5  1  0
  5  6  1  0
  6  7  2  0
  5  8  1  0
  8  9  1  0
  9  3  1  0
  9  5  1  0
  2 10  1  0
  3 11  1  0
  4 12  1  0
  4 13  1  0
  6 14  1  0
  8 15  1  0
  8 16  1  0
  9 17  1  0
M  END
