
     RDKit          3D

 14 13  0  0  0  0  0  0  0  0999 V2000
    0.5645   -0.3019    2.2091 O   0  0  0  0  0  0  0  0  0  0  0  0
    1.0744    0.1169    1.1925 C   0  0  0  0  0  0  0  0  0  0  0  0
    0.6482   -0.4650   -0.0926 C   0  0  0  0  0  0  0  0  0  0  0  0
    1.3097    0.1033   -1.1788 O   0  0  0  0  0  0  0  0  0  0  0  0
   -0.8390   -0.1984   -0.3686 C   0  0  0  0  0  0  0  0  0  0  0  0
   -1.6293   -0.7098    0.6340 O   0  0  0  0  0  0  0  0  0  0  0  0
   -0.9974    1.2561   -0.4786 C   0  0  0  0  0  0  0  0  0  0  0  0
   -1.7653    1.8450    0.2785 O   0  0  0  0  0  0  0  0  0  0  0  0
    1.8212    0.8989    1.2567 H   0  0  0  0  0  0  0  0  0  0  0  0
    0.7493   -1.5634   -0.0584 H   0  0  0  0  0  0  0  0  0  0  0  0
    2.0995   -0.4148   -1.4680 H   0  0  0  0  0  0  0  0  0  0  0  0
   -1.0328   -0.7250   -1.3473 H   0  0  0  0  0  0  0  0  0  0  0  0
   -1.5350   -1.6985    0.6228 H   0  0  0  0  0  0  0  0  0  0  0  0
   -0.4681    1.8564   -1.2014 H   0  0  0  0  0  0  0  0  0  0  0  0
  1  2  2  0
  2  3  1  0
  3  4  1  0
  3  5  1  0
  5  6  1  0
  5  7  1  0
  7  8  2  0
  2  9  1  0
  3 10  1  0
  4 11  1  0
  5 12  1  0
  6 13  1  0
  7 14  1  0
M  END
