
     RDKit          3D

 17 16  0  0  0  0  0  0  0  0999 V2000
    3.4275   -1.7224    1.9017 O   0  0  0  0  0  0  0  0  0  0  0  0
    2.7539   -1.1997    1.2507 C   0  0  0  0  0  0  0  0  0  0  0  0
    1.6263   -0.8820    0.4191 C   0  0  0  0  0  0  0  0  0  0  0  0
    0.6856   -0.6332   -0.2893 C   0  0  0  0  0  0  0  0  0  0  0  0
   -0.4264   -0.3489   -1.0971 C   0  0  0  0  0  0  0  0  0  0  0  0
   -0.9670   -1.5319   -1.6465 O   0  0  0  0  0  0  0  0  0  0  0  0
   -1.5106    0.2596   -0.2651 C   0  0  0  0  0  0  0  0  0  0  0  0
   -1.1780    1.5231    0.4510 C   0  0  0  0  0  0  0  0  0  0  0  0
   -0.1275    1.4212    1.3345 O   0  0  0  0  0  0  0  0  0  0  0  0
    3.3831   -0.0455    1.0393 H   0  0  0  0  0  0  0  0  0  0  0  0
   -0.1980    0.3484   -1.9491 H   0  0  0  0  0  0  0  0  0  0  0  0
   -0.5152   -1.6862   -2.4893 H   0  0  0  0  0  0  0  0  0  0  0  0
   -2.3661    0.5097   -0.9544 H   0  0  0  0  0  0  0  0  0  0  0  0
   -1.9609   -0.5157    0.4418 H   0  0  0  0  0  0  0  0  0  0  0  0
   -2.0994    1.7273    1.1209 H   0  0  0  0  0  0  0  0  0  0  0  0
   -1.1620    2.3849   -0.2203 H   0  0  0  0  0  0  0  0  0  0  0  0
    0.6349    1.9447    0.9522 H   0  0  0  0  0  0  0  0  0  0  0  0
  1  2  2  0
  2  3  1  0
  3  4  3  0
  4  5  1  0
  5  6  1  0
  5  7  1  0
  7  8  1  0
  8  9  1  0
  2 10  1  0
  5 11  1  0
  6 12  1  0
  7 13  1  0
  7 14  1  0
  8 15  1  0
  8 16  1  0
  9 17  1  0
M  END
