
     RDKit          3D

 17 18  0  0  0  0  0  0  0  0999 V2000
   -3.2024    0.2598   -0.0624 O   0  0  0  0  0  0  0  0  0  0  0  0
   -2.0500    0.4024    0.2735 C   0  0  0  0  0  0  0  0  0  0  0  0
   -0.9693   -0.0363   -0.5925 C   0  0  0  0  0  0  0  0  0  0  0  0
    0.1855    0.9728   -0.6561 C   0  0  0  0  0  0  0  0  0  0  0  0
    1.3640    0.0960   -0.4115 C   0  0  0  0  0  0  0  0  0  0  0  0
    1.3966   -0.2280    1.0781 C   0  0  0  0  0  0  0  0  0  0  0  0
    0.2457   -1.0143    1.2008 O   0  0  0  0  0  0  0  0  0  0  0  0
   -0.2240   -1.2540   -0.0751 C   0  0  0  0  0  0  0  0  0  0  0  0
    0.9311   -1.1629   -0.8940 O   0  0  0  0  0  0  0  0  0  0  0  0
   -1.8480    0.8594    1.2233 H   0  0  0  0  0  0  0  0  0  0  0  0
   -1.2620   -0.2147   -1.6414 H   0  0  0  0  0  0  0  0  0  0  0  0
    0.0535    1.6400    0.2195 H   0  0  0  0  0  0  0  0  0  0  0  0
    0.1964    1.5325   -1.5912 H   0  0  0  0  0  0  0  0  0  0  0  0
    2.3034    0.4140   -0.8162 H   0  0  0  0  0  0  0  0  0  0  0  0
    2.3129   -0.7989    1.3366 H   0  0  0  0  0  0  0  0  0  0  0  0
    1.3244    0.7196    1.6182 H   0  0  0  0  0  0  0  0  0  0  0  0
   -0.7578   -2.1875   -0.2094 H   0  0  0  0  0  0  0  0  0  0  0  0
  1  2  2  0
  2  3  1  0
  3  4  1  0
  4  5  1  0
  5  6  1  0
  6  7  1  0
  7  8  1  0
  8  9  1  0
  8  3  1  0
  9  5  1  0
  2 10  1  0
  3 11  1  0
  4 12  1  0
  4 13  1  0
  5 14  1  0
  6 15  1  0
  6 16  1  0
  8 17  1  0
M  END
