
     RDKit          3D

 12 13  0  0  0  0  0  0  0  0999 V2000
   -1.9079   -0.7789   -1.4913 O   0  0  0  0  0  0  0  0  0  0  0  0
   -1.4536   -0.9137   -0.3567 C   0  0  0  0  0  0  0  0  0  0  0  0
   -0.3065   -0.3264    0.0614 C   0  0  0  0  0  0  0  0  0  0  0  0
   -0.0064    1.1352    0.1427 C   0  0  0  0  0  0  0  0  0  0  0  0
    1.1781    0.3796    0.6777 C   0  0  0  0  0  0  0  0  0  0  0  0
    0.2642   -0.4338    1.3235 O   0  0  0  0  0  0  0  0  0  0  0  0
    1.0495   -0.5188   -0.4754 C   0  0  0  0  0  0  0  0  0  0  0  0
    1.7237   -1.0461   -1.3092 O   0  0  0  0  0  0  0  0  0  0  0  0
   -2.0845   -1.5651    0.2797 H   0  0  0  0  0  0  0  0  0  0  0  0
   -0.6469    1.6282    0.8861 H   0  0  0  0  0  0  0  0  0  0  0  0
    0.1694    1.6603   -0.8010 H   0  0  0  0  0  0  0  0  0  0  0  0
    2.0209    0.7796    1.0625 H   0  0  0  0  0  0  0  0  0  0  0  0
  1  2  2  0
  2  3  1  0
  3  4  1  0
  4  5  1  0
  5  6  1  0
  5  7  1  0
  7  8  2  0
  6  3  1  0
  7  3  1  0
  2  9  1  0
  4 10  1  0
  4 11  1  0
  5 12  1  0
M  END
