
     RDKit          3D

 19 19  0  0  0  0  0  0  0  0999 V2000
   -1.4324    2.7634    0.1826 O   0  0  0  0  0  0  0  0  0  0  0  0
   -0.3300    2.1988    0.1941 C   0  0  0  0  0  0  0  0  0  0  0  0
   -0.2737    0.7836    0.6254 C   0  0  0  0  0  0  0  0  0  0  0  0
   -1.5108    0.3084    0.9570 O   0  0  0  0  0  0  0  0  0  0  0  0
   -1.9203   -0.5858   -0.0201 C   0  0  0  0  0  0  0  0  0  0  0  0
   -0.6542   -1.2301   -0.5492 C   0  0  0  0  0  0  0  0  0  0  0  0
    0.3474   -0.1234   -0.3848 C   0  0  0  0  0  0  0  0  0  0  0  0
    1.6227   -0.7473    0.1485 C   0  0  0  0  0  0  0  0  0  0  0  0
    2.5723    0.1908    0.4815 O   0  0  0  0  0  0  0  0  0  0  0  0
    0.5007    2.7858   -0.1118 H   0  0  0  0  0  0  0  0  0  0  0  0
    0.3550    0.7596    1.5553 H   0  0  0  0  0  0  0  0  0  0  0  0
   -2.4902   -0.1218   -0.8359 H   0  0  0  0  0  0  0  0  0  0  0  0
   -2.5485   -1.3516    0.4766 H   0  0  0  0  0  0  0  0  0  0  0  0
   -0.4146   -2.1213    0.0777 H   0  0  0  0  0  0  0  0  0  0  0  0
   -0.7789   -1.5550   -1.6079 H   0  0  0  0  0  0  0  0  0  0  0  0
    0.5584    0.3878   -1.3601 H   0  0  0  0  0  0  0  0  0  0  0  0
    1.3183   -1.2517    1.1086 H   0  0  0  0  0  0  0  0  0  0  0  0
    1.9636   -1.4752   -0.6110 H   0  0  0  0  0  0  0  0  0  0  0  0
    3.1152    0.3850   -0.3265 H   0  0  0  0  0  0  0  0  0  0  0  0
  1  2  2  0
  2  3  1  0
  3  4  1  0
  4  5  1  0
  5  6  1  0
  6  7  1  0
  7  8  1  0
  8  9  1  0
  7  3  1  0
  2 10  1  0
  3 11  1  0
  5 12  1  0
  5 13  1  0
  6 14  1  0
  6 15  1  0
  7 16  1  0
  8 17  1  0
  8 18  1  0
  9 19  1  0
M  END
