
     RDKit          3D

 12 13  0  0  0  0  0  0  0  0999 V2000
   -1.9001    1.0403   -1.1296 O   0  0  0  0  0  0  0  0  0  0  0  0
   -1.9335    0.4629   -0.0437 C   0  0  0  0  0  0  0  0  0  0  0  0
   -0.6742   -0.1951    0.4321 C   0  0  0  0  0  0  0  0  0  0  0  0
    0.2510   -0.7879   -0.4670 C   0  0  0  0  0  0  0  0  0  0  0  0
    1.2492   -0.1468   -1.2817 O   0  0  0  0  0  0  0  0  0  0  0  0
    1.9025   -0.0842   -0.0518 C   0  0  0  0  0  0  0  0  0  0  0  0
    2.9566   -0.3324    0.5354 O   0  0  0  0  0  0  0  0  0  0  0  0
    0.6030    0.5088    0.3730 C   0  0  0  0  0  0  0  0  0  0  0  0
   -2.8625    0.4671    0.4940 H   0  0  0  0  0  0  0  0  0  0  0  0
   -0.8638   -0.6804    1.4393 H   0  0  0  0  0  0  0  0  0  0  0  0
    0.7605   -1.7294   -0.0827 H   0  0  0  0  0  0  0  0  0  0  0  0
    0.5114    1.4773   -0.2172 H   0  0  0  0  0  0  0  0  0  0  0  0
  1  2  2  0
  2  3  1  0
  3  4  1  0
  4  5  1  0
  5  6  1  0
  6  7  2  0
  6  8  1  0
  8  3  1  0
  8  4  1  0
  2  9  1  0
  3 10  1  0
  4 11  1  0
  8 12  1  0
M  END
