
     RDKit          3D

 19 19  0  0  0  0  0  0  0  0999 V2000
    3.6061    0.1430    0.8031 O   0  0  0  0  0  0  0  0  0  0  0  0
    2.5639    0.3846    0.2427 C   0  0  0  0  0  0  0  0  0  0  0  0
    1.5568   -0.6571   -0.0330 C   0  0  0  0  0  0  0  0  0  0  0  0
    0.3480   -0.0751   -0.7470 C   0  0  0  0  0  0  0  0  0  0  0  0
   -0.2971    1.0083    0.1290 C   0  0  0  0  0  0  0  0  0  0  0  0
   -1.6373    0.4299    0.5360 C   0  0  0  0  0  0  0  0  0  0  0  0
   -1.9907   -0.3754   -0.7026 C   0  0  0  0  0  0  0  0  0  0  0  0
   -0.7157   -1.0729   -0.9430 C   0  0  0  0  0  0  0  0  0  0  0  0
   -0.6015   -2.2266   -1.2385 O   0  0  0  0  0  0  0  0  0  0  0  0
    2.3631    1.3953   -0.0661 H   0  0  0  0  0  0  0  0  0  0  0  0
    2.0245   -1.3648   -0.7722 H   0  0  0  0  0  0  0  0  0  0  0  0
    1.2765   -1.2156    0.8685 H   0  0  0  0  0  0  0  0  0  0  0  0
    0.6224    0.3211   -1.7420 H   0  0  0  0  0  0  0  0  0  0  0  0
    0.2799    1.1491    1.0653 H   0  0  0  0  0  0  0  0  0  0  0  0
   -0.3852    1.9206   -0.4638 H   0  0  0  0  0  0  0  0  0  0  0  0
   -2.4103    1.2014    0.6872 H   0  0  0  0  0  0  0  0  0  0  0  0
   -1.5183   -0.2548    1.3908 H   0  0  0  0  0  0  0  0  0  0  0  0
   -2.2580    0.3466   -1.5000 H   0  0  0  0  0  0  0  0  0  0  0  0
   -2.8270   -1.0577   -0.4602 H   0  0  0  0  0  0  0  0  0  0  0  0
  1  2  2  0
  2  3  1  0
  3  4  1  0
  4  5  1  0
  5  6  1  0
  6  7  1  0
  7  8  1  0
  8  9  2  0
  8  4  1  0
  2 10  1  0
  3 11  1  0
  3 12  1  0
  4 13  1  0
  5 14  1  0
  5 15  1  0
  6 16  1  0
  6 17  1  0
  7 18  1  0
  7 19  1  0
M  END
