
     RDKit          3D

 14 15  0  0  0  0  0  0  0  0999 V2000
   -2.0845    1.4524    0.7967 O   0  0  0  0  0  0  0  0  0  0  0  0
   -1.1969    1.3806   -0.0276 C   0  0  0  0  0  0  0  0  0  0  0  0
   -0.3213    0.2145   -0.0524 C   0  0  0  0  0  0  0  0  0  0  0  0
   -0.8960   -1.1717   -0.1958 C   0  0  0  0  0  0  0  0  0  0  0  0
   -0.0420   -1.3556   -1.2953 O   0  0  0  0  0  0  0  0  0  0  0  0
    0.5790   -0.1286   -1.1496 C   0  0  0  0  0  0  0  0  0  0  0  0
    1.1404    0.3062    0.1405 C   0  0  0  0  0  0  0  0  0  0  0  0
    1.6890   -0.6079    1.0348 O   0  0  0  0  0  0  0  0  0  0  0  0
   -1.0831    2.1936   -0.7251 H   0  0  0  0  0  0  0  0  0  0  0  0
   -1.9603   -1.1216   -0.4402 H   0  0  0  0  0  0  0  0  0  0  0  0
   -0.6014   -1.8451    0.6108 H   0  0  0  0  0  0  0  0  0  0  0  0
    0.7398    0.4982   -2.0395 H   0  0  0  0  0  0  0  0  0  0  0  0
    1.5907    1.3019    0.1725 H   0  0  0  0  0  0  0  0  0  0  0  0
    2.4464   -1.1168    0.6557 H   0  0  0  0  0  0  0  0  0  0  0  0
  1  2  2  0
  2  3  1  0
  3  4  1  0
  4  5  1  0
  5  6  1  0
  6  7  1  0
  7  8  1  0
  6  3  1  0
  7  3  1  0
  2  9  1  0
  4 10  1  0
  4 11  1  0
  6 12  1  0
  7 13  1  0
  8 14  1  0
M  END
