
     RDKit          3D

 13 13  0  0  0  0  0  0  0  0999 V2000
   -0.2380    2.2551   -0.7896 O   0  0  0  0  0  0  0  0  0  0  0  0
   -0.2975    1.0511   -1.0278 C   0  0  0  0  0  0  0  0  0  0  0  0
    0.3293    0.0172   -0.2152 C   0  0  0  0  0  0  0  0  0  0  0  0
    1.7098    0.2555    0.2360 C   0  0  0  0  0  0  0  0  0  0  0  0
    2.0280    1.3195    0.6974 O   0  0  0  0  0  0  0  0  0  0  0  0
   -0.5697   -0.3704    0.9476 C   0  0  0  0  0  0  0  0  0  0  0  0
   -1.1245   -1.2686   -0.0646 C   0  0  0  0  0  0  0  0  0  0  0  0
   -2.2260   -1.8304   -0.2896 O   0  0  0  0  0  0  0  0  0  0  0  0
    0.0870   -1.2824   -0.7398 O   0  0  0  0  0  0  0  0  0  0  0  0
   -0.8577    0.7607   -1.9045 H   0  0  0  0  0  0  0  0  0  0  0  0
    2.4206   -0.5385    0.1437 H   0  0  0  0  0  0  0  0  0  0  0  0
    0.0159   -0.8063    1.7514 H   0  0  0  0  0  0  0  0  0  0  0  0
   -1.2771    0.4376    1.2550 H   0  0  0  0  0  0  0  0  0  0  0  0
  1  2  2  0
  2  3  1  0
  3  4  1  0
  4  5  2  0
  3  6  1  0
  6  7  1  0
  7  8  2  0
  7  9  1  0
  9  3  1  0
  2 10  1  0
  4 11  1  0
  6 12  1  0
  6 13  1  0
M  END
