
     RDKit          3D

 17 18  0  0  0  0  0  0  0  0999 V2000
   -2.7117   -1.1411   -1.5094 O   0  0  0  0  0  0  0  0  0  0  0  0
   -1.6863   -0.5272   -1.2840 C   0  0  0  0  0  0  0  0  0  0  0  0
   -0.9978   -0.5862    0.0577 C   0  0  0  0  0  0  0  0  0  0  0  0
   -1.3419    0.6344    0.8819 C   0  0  0  0  0  0  0  0  0  0  0  0
   -0.3347    1.3170    0.1568 O   0  0  0  0  0  0  0  0  0  0  0  0
    0.3001    0.1118    0.0277 C   0  0  0  0  0  0  0  0  0  0  0  0
    1.4253   -0.1779   -0.8210 C   0  0  0  0  0  0  0  0  0  0  0  0
    1.5050   -0.2838    0.7188 C   0  0  0  0  0  0  0  0  0  0  0  0
    2.2283    0.7348    1.3669 O   0  0  0  0  0  0  0  0  0  0  0  0
   -1.2715    0.0814   -2.1028 H   0  0  0  0  0  0  0  0  0  0  0  0
   -1.0811   -1.5465    0.5710 H   0  0  0  0  0  0  0  0  0  0  0  0
   -2.3322    1.0552    0.7528 H   0  0  0  0  0  0  0  0  0  0  0  0
   -0.9937    0.5451    1.9281 H   0  0  0  0  0  0  0  0  0  0  0  0
    1.4650   -1.1467   -1.3693 H   0  0  0  0  0  0  0  0  0  0  0  0
    1.9570    0.7083   -1.2751 H   0  0  0  0  0  0  0  0  0  0  0  0
    1.6658   -1.2919    1.1480 H   0  0  0  0  0  0  0  0  0  0  0  0
    2.2045    1.5132    0.7519 H   0  0  0  0  0  0  0  0  0  0  0  0
  1  2  2  0
  2  3  1  0
  3  4  1  0
  4  5  1  0
  5  6  1  0
  6  7  1  0
  7  8  1  0
  8  9  1  0
  6  3  1  0
  8  6  1  0
  2 10  1  0
  3 11  1  0
  4 12  1  0
  4 13  1  0
  7 14  1  0
  7 15  1  0
  8 16  1  0
  9 17  1  0
M  END
