
     RDKit          3D

 15 14  0  0  0  0  0  0  0  0999 V2000
    3.8716   -1.0926    0.0289 O   0  0  0  0  0  0  0  0  0  0  0  0
    3.3034    0.0129    0.1997 C   0  0  0  0  0  0  0  0  0  0  0  0
    1.8841    0.1213    0.0471 C   0  0  0  0  0  0  0  0  0  0  0  0
    0.6871    0.1966   -0.0951 C   0  0  0  0  0  0  0  0  0  0  0  0
   -0.7647    0.2843   -0.2589 C   0  0  0  0  0  0  0  0  0  0  0  0
   -1.2152    1.6032    0.3088 C   0  0  0  0  0  0  0  0  0  0  0  0
   -1.8137    2.4221   -0.3280 O   0  0  0  0  0  0  0  0  0  0  0  0
   -1.4771   -0.7837    0.5690 C   0  0  0  0  0  0  0  0  0  0  0  0
   -1.1032   -2.0571    0.2075 O   0  0  0  0  0  0  0  0  0  0  0  0
    3.9464    0.8372    0.4596 H   0  0  0  0  0  0  0  0  0  0  0  0
   -0.9823    0.2188   -1.3200 H   0  0  0  0  0  0  0  0  0  0  0  0
   -0.9820    1.8185    1.3530 H   0  0  0  0  0  0  0  0  0  0  0  0
   -1.1428   -0.6110    1.6246 H   0  0  0  0  0  0  0  0  0  0  0  0
   -2.5634   -0.5911    0.4742 H   0  0  0  0  0  0  0  0  0  0  0  0
   -1.6482   -2.3792   -0.5582 H   0  0  0  0  0  0  0  0  0  0  0  0
  1  2  2  0
  2  3  1  0
  3  4  3  0
  4  5  1  0
  5  6  1  0
  6  7  2  0
  5  8  1  0
  8  9  1  0
  2 10  1  0
  5 11  1  0
  6 12  1  0
  8 13  1  0
  8 14  1  0
  9 15  1  0
M  END
