
     RDKit          3D

 19 20  0  0  0  0  0  0  0  0999 V2000
    2.7508   -0.3276    1.1619 O   0  0  0  0  0  0  0  0  0  0  0  0
    2.4269   -0.4693    0.0068 C   0  0  0  0  0  0  0  0  0  0  0  0
    1.0869   -0.9618   -0.3507 C   0  0  0  0  0  0  0  0  0  0  0  0
    0.0564   -0.0709    0.2531 C   0  0  0  0  0  0  0  0  0  0  0  0
    0.0863    1.3711   -0.1802 C   0  0  0  0  0  0  0  0  0  0  0  0
   -1.4022    1.2693   -0.4385 C   0  0  0  0  0  0  0  0  0  0  0  0
   -1.3570   -0.1420    0.0712 C   0  0  0  0  0  0  0  0  0  0  0  0
   -2.0755   -1.1490   -0.5174 O   0  0  0  0  0  0  0  0  0  0  0  0
   -0.7861   -0.4188    1.4085 C   0  0  0  0  0  0  0  0  0  0  0  0
    3.1557   -0.2212   -0.7593 H   0  0  0  0  0  0  0  0  0  0  0  0
    1.0395   -1.0242   -1.4656 H   0  0  0  0  0  0  0  0  0  0  0  0
    0.9962   -2.0137    0.0465 H   0  0  0  0  0  0  0  0  0  0  0  0
    0.6353    1.4959   -1.1481 H   0  0  0  0  0  0  0  0  0  0  0  0
    0.3874    2.0570    0.6052 H   0  0  0  0  0  0  0  0  0  0  0  0
   -1.9785    1.9892    0.1556 H   0  0  0  0  0  0  0  0  0  0  0  0
   -1.6910    1.2902   -1.5005 H   0  0  0  0  0  0  0  0  0  0  0  0
   -1.6708   -1.5664   -1.3024 H   0  0  0  0  0  0  0  0  0  0  0  0
   -0.7344   -1.4679    1.7460 H   0  0  0  0  0  0  0  0  0  0  0  0
   -0.9259    0.3601    2.2079 H   0  0  0  0  0  0  0  0  0  0  0  0
  1  2  2  0
  2  3  1  0
  3  4  1  0
  4  5  1  0
  5  6  1  0
  6  7  1  0
  7  8  1  0
  7  9  1  0
  7  4  1  0
  9  4  1  0
  2 10  1  0
  3 11  1  0
  3 12  1  0
  5 13  1  0
  5 14  1  0
  6 15  1  0
  6 16  1  0
  8 17  1  0
  9 18  1  0
  9 19  1  0
M  END
