
     RDKit          3D

 19 20  0  0  0  0  0  0  0  0999 V2000
    3.4429    0.5679   -0.7273 O   0  0  0  0  0  0  0  0  0  0  0  0
    2.7209   -0.1520   -0.0580 C   0  0  0  0  0  0  0  0  0  0  0  0
    1.3249   -0.4690   -0.4968 C   0  0  0  0  0  0  0  0  0  0  0  0
    0.5299    0.7657   -0.7497 C   0  0  0  0  0  0  0  0  0  0  0  0
   -0.4786    0.7560    0.3654 C   0  0  0  0  0  0  0  0  0  0  0  0
   -1.9021    0.5461   -0.0348 C   0  0  0  0  0  0  0  0  0  0  0  0
   -1.7616   -0.9185    0.3112 C   0  0  0  0  0  0  0  0  0  0  0  0
   -0.4051   -0.6275    0.9141 C   0  0  0  0  0  0  0  0  0  0  0  0
    0.6569   -1.2826    0.3604 O   0  0  0  0  0  0  0  0  0  0  0  0
    3.1073   -0.5657    0.8722 H   0  0  0  0  0  0  0  0  0  0  0  0
    1.4313   -1.0078   -1.4786 H   0  0  0  0  0  0  0  0  0  0  0  0
    0.0717    0.7995   -1.7541 H   0  0  0  0  0  0  0  0  0  0  0  0
    1.1208    1.7099   -0.6387 H   0  0  0  0  0  0  0  0  0  0  0  0
   -0.3438    1.5079    1.1572 H   0  0  0  0  0  0  0  0  0  0  0  0
   -2.6428    1.0739    0.6171 H   0  0  0  0  0  0  0  0  0  0  0  0
   -2.1492    0.7602   -1.0887 H   0  0  0  0  0  0  0  0  0  0  0  0
   -1.7117   -1.5257   -0.6090 H   0  0  0  0  0  0  0  0  0  0  0  0
   -2.5372   -1.2376    1.0245 H   0  0  0  0  0  0  0  0  0  0  0  0
   -0.4743   -0.7008    2.0135 H   0  0  0  0  0  0  0  0  0  0  0  0
  1  2  2  0
  2  3  1  0
  3  4  1  0
  4  5  1  0
  5  6  1  0
  6  7  1  0
  7  8  1  0
  8  9  1  0
  9  3  1  0
  8  5  1  0
  2 10  1  0
  3 11  1  0
  4 12  1  0
  4 13  1  0
  5 14  1  0
  6 15  1  0
  6 16  1  0
  7 17  1  0
  7 18  1  0
  8 19  1  0
M  END
