
     RDKit          3D

 16 15  0  0  0  0  0  0  0  0999 V2000
   -3.6373    0.3394    0.8308 O   0  0  0  0  0  0  0  0  0  0  0  0
   -2.8015    0.3433   -0.0399 C   0  0  0  0  0  0  0  0  0  0  0  0
   -1.5768   -0.4836   -0.0831 C   0  0  0  0  0  0  0  0  0  0  0  0
   -0.3946    0.3951    0.2718 C   0  0  0  0  0  0  0  0  0  0  0  0
    0.9209   -0.3647    0.2485 C   0  0  0  0  0  0  0  0  0  0  0  0
    1.9145    0.5978    0.5670 O   0  0  0  0  0  0  0  0  0  0  0  0
    3.2635    0.2387    0.6303 C   0  0  0  0  0  0  0  0  0  0  0  0
    3.5293   -0.9656    0.3999 O   0  0  0  0  0  0  0  0  0  0  0  0
   -2.9611    1.0320   -0.8948 H   0  0  0  0  0  0  0  0  0  0  0  0
   -1.4820   -0.9091   -1.0967 H   0  0  0  0  0  0  0  0  0  0  0  0
   -1.7130   -1.2769    0.6994 H   0  0  0  0  0  0  0  0  0  0  0  0
   -0.3939    1.2674   -0.4210 H   0  0  0  0  0  0  0  0  0  0  0  0
   -0.5874    0.8136    1.2862 H   0  0  0  0  0  0  0  0  0  0  0  0
    1.0922   -0.8641   -0.7108 H   0  0  0  0  0  0  0  0  0  0  0  0
    0.8142   -1.1627    1.0197 H   0  0  0  0  0  0  0  0  0  0  0  0
    4.0132    0.9996    0.8733 H   0  0  0  0  0  0  0  0  0  0  0  0
  1  2  2  0
  2  3  1  0
  3  4  1  0
  4  5  1  0
  5  6  1  0
  6  7  1  0
  7  8  2  0
  2  9  1  0
  3 10  1  0
  3 11  1  0
  4 12  1  0
  4 13  1  0
  5 14  1  0
  5 15  1  0
  7 16  1  0
M  END
