
     RDKit          3D

 15 15  0  0  0  0  0  0  0  0999 V2000
    3.7629    2.5543   -1.4874 O   0  0  0  0  0  0  0  0  0  0  0  0
    3.5472    1.3311   -1.3419 C   0  0  0  0  0  0  0  0  0  0  0  0
    2.2317    0.7784   -1.1881 C   0  0  0  0  0  0  0  0  0  0  0  0
    1.1122    0.3021   -1.0403 C   0  0  0  0  0  0  0  0  0  0  0  0
   -0.2041   -0.2378   -0.8505 C   0  0  0  0  0  0  0  0  0  0  0  0
   -0.8372   -0.5785   -1.8833 O   0  0  0  0  0  0  0  0  0  0  0  0
   -0.7552   -0.3721    0.5018 C   0  0  0  0  0  0  0  0  0  0  0  0
   -1.7862   -1.3792    0.8343 C   0  0  0  0  0  0  0  0  0  0  0  0
   -2.2590   -0.0095    0.5886 C   0  0  0  0  0  0  0  0  0  0  0  0
    4.4184    0.6747   -1.3350 H   0  0  0  0  0  0  0  0  0  0  0  0
   -0.1172   -0.0431    1.3328 H   0  0  0  0  0  0  0  0  0  0  0  0
   -1.9745   -2.1640    0.0905 H   0  0  0  0  0  0  0  0  0  0  0  0
   -1.8523   -1.7310    1.8866 H   0  0  0  0  0  0  0  0  0  0  0  0
   -2.4902    0.6995    1.3932 H   0  0  0  0  0  0  0  0  0  0  0  0
   -2.7965    0.1749   -0.3464 H   0  0  0  0  0  0  0  0  0  0  0  0
  1  2  2  0
  2  3  1  0
  3  4  3  0
  4  5  1  0
  5  6  2  0
  5  7  1  0
  7  8  1  0
  8  9  1  0
  9  7  1  0
  2 10  1  0
  7 11  1  0
  8 12  1  0
  8 13  1  0
  9 14  1  0
  9 15  1  0
M  END
