
     RDKit          3D

 15 16  0  0  0  0  0  0  0  0999 V2000
    2.0584   -1.5404    0.6795 O   0  0  0  0  0  0  0  0  0  0  0  0
    1.1875   -0.7438    1.0037 C   0  0  0  0  0  0  0  0  0  0  0  0
    0.0852   -0.4364    0.0901 C   0  0  0  0  0  0  0  0  0  0  0  0
   -0.6615   -1.5765   -0.4654 C   0  0  0  0  0  0  0  0  0  0  0  0
   -0.9140   -1.7102   -1.6650 O   0  0  0  0  0  0  0  0  0  0  0  0
    0.5078    0.6006   -0.9300 C   0  0  0  0  0  0  0  0  0  0  0  0
   -0.3442    1.5913   -0.1323 C   0  0  0  0  0  0  0  0  0  0  0  0
   -1.7156    1.2777   -0.2316 O   0  0  0  0  0  0  0  0  0  0  0  0
   -0.8465    0.6255    0.6587 C   0  0  0  0  0  0  0  0  0  0  0  0
    1.2838   -0.2948    1.9822 H   0  0  0  0  0  0  0  0  0  0  0  0
   -1.0083   -2.3389    0.2110 H   0  0  0  0  0  0  0  0  0  0  0  0
    0.0924    0.4832   -1.9338 H   0  0  0  0  0  0  0  0  0  0  0  0
    1.5528    0.9191   -0.8882 H   0  0  0  0  0  0  0  0  0  0  0  0
   -0.0274    2.6240   -0.0379 H   0  0  0  0  0  0  0  0  0  0  0  0
   -1.2504    0.5197    1.6591 H   0  0  0  0  0  0  0  0  0  0  0  0
  1  2  2  0
  2  3  1  0
  3  4  1  0
  4  5  2  0
  3  6  1  0
  6  7  1  0
  7  8  1  0
  8  9  1  0
  9  3  1  0
  9  7  1  0
  2 10  1  0
  4 11  1  0
  6 12  1  0
  6 13  1  0
  7 14  1  0
  9 15  1  0
M  END
