
     RDKit          3D

 17 18  0  0  0  0  0  0  0  0999 V2000
    2.9972   -0.3787   -0.0013 O   0  0  0  0  0  0  0  0  0  0  0  0
    2.0828   -0.1084    0.7600 C   0  0  0  0  0  0  0  0  0  0  0  0
    0.6719   -0.0249    0.3534 C   0  0  0  0  0  0  0  0  0  0  0  0
    0.1880   -1.2021   -0.4647 C   0  0  0  0  0  0  0  0  0  0  0  0
   -1.3112   -1.0843   -0.6133 C   0  0  0  0  0  0  0  0  0  0  0  0
   -1.8628    0.0200   -0.1342 C   0  0  0  0  0  0  0  0  0  0  0  0
   -0.9627    1.0131    0.5020 C   0  0  0  0  0  0  0  0  0  0  0  0
    0.2644    1.2416   -0.3478 C   0  0  0  0  0  0  0  0  0  0  0  0
   -0.1734    0.2986    1.4064 O   0  0  0  0  0  0  0  0  0  0  0  0
    2.3451    0.0784    1.7940 H   0  0  0  0  0  0  0  0  0  0  0  0
    0.6142   -1.1657   -1.4658 H   0  0  0  0  0  0  0  0  0  0  0  0
    0.4103   -2.1628    0.0323 H   0  0  0  0  0  0  0  0  0  0  0  0
   -1.8642   -1.8696   -1.0850 H   0  0  0  0  0  0  0  0  0  0  0  0
   -2.9150    0.2277   -0.1834 H   0  0  0  0  0  0  0  0  0  0  0  0
   -1.4263    1.8923    0.9404 H   0  0  0  0  0  0  0  0  0  0  0  0
    0.1182    1.0836   -1.4294 H   0  0  0  0  0  0  0  0  0  0  0  0
    0.8237    2.1412   -0.0637 H   0  0  0  0  0  0  0  0  0  0  0  0
  1  2  2  0
  2  3  1  0
  3  4  1  0
  4  5  1  0
  5  6  2  0
  6  7  1  0
  7  8  1  0
  7  9  1  0
  8  3  1  0
  9  3  1  0
  2 10  1  0
  4 11  1  0
  4 12  1  0
  5 13  1  0
  6 14  1  0
  7 15  1  0
  8 16  1  0
  8 17  1  0
M  END
