
     RDKit          3D

 16 16  0  0  0  0  0  0  0  0999 V2000
    0.2440    2.5100   -0.5344 O   0  0  0  0  0  0  0  0  0  0  0  0
    0.8338    1.4617   -0.7231 C   0  0  0  0  0  0  0  0  0  0  0  0
    0.4398    0.2451    0.0274 C   0  0  0  0  0  0  0  0  0  0  0  0
    1.5507   -0.3509    0.7803 C   0  0  0  0  0  0  0  0  0  0  0  0
    1.6374   -0.4759    1.9650 O   0  0  0  0  0  0  0  0  0  0  0  0
   -0.8614    0.4107    0.7311 C   0  0  0  0  0  0  0  0  0  0  0  0
   -1.4391   -0.8103    0.0558 C   0  0  0  0  0  0  0  0  0  0  0  0
   -0.2259   -0.8200   -0.8490 C   0  0  0  0  0  0  0  0  0  0  0  0
    1.6548    1.3883   -1.4373 H   0  0  0  0  0  0  0  0  0  0  0  0
    2.3999   -0.7245    0.1801 H   0  0  0  0  0  0  0  0  0  0  0  0
   -1.4194    1.3208    0.3819 H   0  0  0  0  0  0  0  0  0  0  0  0
   -0.8550    0.3658    1.8350 H   0  0  0  0  0  0  0  0  0  0  0  0
   -1.4431   -1.6634    0.7741 H   0  0  0  0  0  0  0  0  0  0  0  0
   -2.4038   -0.6410   -0.4754 H   0  0  0  0  0  0  0  0  0  0  0  0
   -0.4022   -0.4157   -1.8737 H   0  0  0  0  0  0  0  0  0  0  0  0
    0.2896   -1.8007   -0.8378 H   0  0  0  0  0  0  0  0  0  0  0  0
  1  2  2  0
  2  3  1  0
  3  4  1  0
  4  5  2  0
  3  6  1  0
  6  7  1  0
  7  8  1  0
  8  3  1  0
  2  9  1  0
  4 10  1  0
  6 11  1  0
  6 12  1  0
  7 13  1  0
  7 14  1  0
  8 15  1  0
  8 16  1  0
M  END
