
     RDKit          3D

 18 17  0  0  0  0  0  0  0  0999 V2000
    2.1358   -1.5857    0.3432 O   0  0  0  0  0  0  0  0  0  0  0  0
    1.9530   -0.3877    0.3207 C   0  0  0  0  0  0  0  0  0  0  0  0
    1.1189    0.2385   -0.7135 C   0  0  0  0  0  0  0  0  0  0  0  0
   -0.3440    0.2602   -0.4577 C   0  0  0  0  0  0  0  0  0  0  0  0
   -0.7166    0.9994    0.8110 C   0  0  0  0  0  0  0  0  0  0  0  0
   -0.2715    2.3324    0.6878 O   0  0  0  0  0  0  0  0  0  0  0  0
   -0.9586   -1.1025   -0.4078 C   0  0  0  0  0  0  0  0  0  0  0  0
   -0.4317   -1.9078    0.5865 O   0  0  0  0  0  0  0  0  0  0  0  0
    2.4209    0.2158    1.0870 H   0  0  0  0  0  0  0  0  0  0  0  0
    1.4430    1.3017   -0.9299 H   0  0  0  0  0  0  0  0  0  0  0  0
    1.2568   -0.2837   -1.7089 H   0  0  0  0  0  0  0  0  0  0  0  0
   -0.8100    0.8070   -1.3351 H   0  0  0  0  0  0  0  0  0  0  0  0
   -1.8114    1.0523    0.9644 H   0  0  0  0  0  0  0  0  0  0  0  0
   -0.2263    0.5785    1.7058 H   0  0  0  0  0  0  0  0  0  0  0  0
   -0.8933    2.7827    0.0507 H   0  0  0  0  0  0  0  0  0  0  0  0
   -0.8244   -1.6009   -1.4091 H   0  0  0  0  0  0  0  0  0  0  0  0
   -2.0358   -0.9630   -0.1758 H   0  0  0  0  0  0  0  0  0  0  0  0
   -1.0047   -2.7372    0.5807 H   0  0  0  0  0  0  0  0  0  0  0  0
  1  2  2  0
  2  3  1  0
  3  4  1  0
  4  5  1  0
  5  6  1  0
  4  7  1  0
  7  8  1  0
  2  9  1  0
  3 10  1  0
  3 11  1  0
  4 12  1  0
  5 13  1  0
  5 14  1  0
  6 15  1  0
  7 16  1  0
  7 17  1  0
  8 18  1  0
M  END
