
     RDKit          3D

 16 16  0  0  0  0  0  0  0  0999 V2000
    2.0792    1.3993   -0.8186 O   0  0  0  0  0  0  0  0  0  0  0  0
    2.2546    0.2674   -0.4522 C   0  0  0  0  0  0  0  0  0  0  0  0
    1.1347   -0.6836   -0.1761 C   0  0  0  0  0  0  0  0  0  0  0  0
   -0.1527    0.0567   -0.4451 C   0  0  0  0  0  0  0  0  0  0  0  0
   -1.4101   -0.7545   -0.2171 C   0  0  0  0  0  0  0  0  0  0  0  0
   -1.9851    0.4386    0.4567 C   0  0  0  0  0  0  0  0  0  0  0  0
   -3.0808    0.9052    0.6541 O   0  0  0  0  0  0  0  0  0  0  0  0
   -0.5896    0.8160    0.7895 C   0  0  0  0  0  0  0  0  0  0  0  0
    3.2811   -0.0745   -0.3172 H   0  0  0  0  0  0  0  0  0  0  0  0
    1.2301   -1.5246   -0.8984 H   0  0  0  0  0  0  0  0  0  0  0  0
    1.1742   -1.0348    0.8565 H   0  0  0  0  0  0  0  0  0  0  0  0
   -0.1311    0.6716   -1.3521 H   0  0  0  0  0  0  0  0  0  0  0  0
   -1.9424   -1.0773   -1.1282 H   0  0  0  0  0  0  0  0  0  0  0  0
   -1.2191   -1.5479    0.5414 H   0  0  0  0  0  0  0  0  0  0  0  0
   -0.2787    0.2530    1.7088 H   0  0  0  0  0  0  0  0  0  0  0  0
   -0.3644    1.8894    0.7978 H   0  0  0  0  0  0  0  0  0  0  0  0
  1  2  2  0
  2  3  1  0
  3  4  1  0
  4  5  1  0
  5  6  1  0
  6  7  2  0
  6  8  1  0
  8  4  1  0
  2  9  1  0
  3 10  1  0
  3 11  1  0
  4 12  1  0
  5 13  1  0
  5 14  1  0
  8 15  1  0
  8 16  1  0
M  END
