
     RDKit          3D

 13 13  0  0  0  0  0  0  0  0999 V2000
   -1.5228   -1.7067   -0.7635 O   0  0  0  0  0  0  0  0  0  0  0  0
   -1.5885   -0.4942   -0.4777 C   0  0  0  0  0  0  0  0  0  0  0  0
   -0.3974    0.0523    0.2289 C   0  0  0  0  0  0  0  0  0  0  0  0
   -0.6833    0.5028    1.5329 O   0  0  0  0  0  0  0  0  0  0  0  0
    0.3868    1.0803   -0.5377 C   0  0  0  0  0  0  0  0  0  0  0  0
    0.9825   -0.2854   -0.1557 C   0  0  0  0  0  0  0  0  0  0  0  0
    2.0170   -0.1956    0.7346 O   0  0  0  0  0  0  0  0  0  0  0  0
   -2.4559    0.0263   -0.7688 H   0  0  0  0  0  0  0  0  0  0  0  0
   -1.3185   -0.1364    1.9812 H   0  0  0  0  0  0  0  0  0  0  0  0
    0.2426    1.2449   -1.6191 H   0  0  0  0  0  0  0  0  0  0  0  0
    0.7301    1.9629    0.0380 H   0  0  0  0  0  0  0  0  0  0  0  0
    1.0207   -1.0456   -0.9761 H   0  0  0  0  0  0  0  0  0  0  0  0
    2.5867   -1.0055    0.7831 H   0  0  0  0  0  0  0  0  0  0  0  0
  1  2  2  0
  2  3  1  0
  3  4  1  0
  3  5  1  0
  5  6  1  0
  6  7  1  0
  6  3  1  0
  2  8  1  0
  4  9  1  0
  5 10  1  0
  5 11  1  0
  6 12  1  0
  7 13  1  0
M  END
