
     RDKit          3D

 17 19  0  0  0  0  0  0  0  0999 V2000
    2.7198    0.5075    1.2999 O   0  0  0  0  0  0  0  0  0  0  0  0
    2.2028    0.7537    0.2243 C   0  0  0  0  0  0  0  0  0  0  0  0
    1.3571   -0.2861   -0.4195 C   0  0  0  0  0  0  0  0  0  0  0  0
    0.9050    0.2857   -1.6358 O   0  0  0  0  0  0  0  0  0  0  0  0
   -0.4574    0.3256   -1.4580 C   0  0  0  0  0  0  0  0  0  0  0  0
   -0.8478   -0.9799   -0.8119 C   0  0  0  0  0  0  0  0  0  0  0  0
   -1.9233   -0.2095   -0.1092 C   0  0  0  0  0  0  0  0  0  0  0  0
   -0.7318    0.6936   -0.0236 C   0  0  0  0  0  0  0  0  0  0  0  0
    0.0720   -0.5303    0.2782 C   0  0  0  0  0  0  0  0  0  0  0  0
    2.3981    1.7319   -0.1979 H   0  0  0  0  0  0  0  0  0  0  0  0
    1.9100   -1.2234   -0.5992 H   0  0  0  0  0  0  0  0  0  0  0  0
   -1.0885    0.7281   -2.2236 H   0  0  0  0  0  0  0  0  0  0  0  0
   -0.9075   -1.8756   -1.2485 H   0  0  0  0  0  0  0  0  0  0  0  0
   -2.2235   -0.7134    0.8259 H   0  0  0  0  0  0  0  0  0  0  0  0
   -2.7496    0.1734   -0.7058 H   0  0  0  0  0  0  0  0  0  0  0  0
   -0.6670    1.5996    0.3923 H   0  0  0  0  0  0  0  0  0  0  0  0
    0.0316   -0.9809    1.2391 H   0  0  0  0  0  0  0  0  0  0  0  0
  1  2  2  0
  2  3  1  0
  3  4  1  0
  4  5  1  0
  5  6  1  0
  6  7  1  0
  7  8  1  0
  8  9  1  0
  9  3  1  0
  8  5  1  0
  9  6  1  0
  2 10  1  0
  3 11  1  0
  5 12  1  0
  6 13  1  0
  7 14  1  0
  7 15  1  0
  8 16  1  0
  9 17  1  0
M  END
