
     RDKit          3D

 15 16  0  0  0  0  0  0  0  0999 V2000
   -1.9742    0.7364   -1.7267 O   0  0  0  0  0  0  0  0  0  0  0  0
   -1.9419    0.0354   -0.7313 C   0  0  0  0  0  0  0  0  0  0  0  0
   -0.6514   -0.4799   -0.2724 C   0  0  0  0  0  0  0  0  0  0  0  0
    0.5786    0.2257   -0.8221 C   0  0  0  0  0  0  0  0  0  0  0  0
    1.6496   -0.5442   -0.1231 C   0  0  0  0  0  0  0  0  0  0  0  0
    1.1695   -0.6328    1.1215 C   0  0  0  0  0  0  0  0  0  0  0  0
   -0.1185    0.1133    1.0173 C   0  0  0  0  0  0  0  0  0  0  0  0
    0.2843    1.2650    0.1867 C   0  0  0  0  0  0  0  0  0  0  0  0
    0.3552    2.4523    0.2509 O   0  0  0  0  0  0  0  0  0  0  0  0
   -2.8312   -0.2188   -0.1765 H   0  0  0  0  0  0  0  0  0  0  0  0
   -0.5597   -1.5875   -0.2165 H   0  0  0  0  0  0  0  0  0  0  0  0
    0.6507    0.4457   -1.8423 H   0  0  0  0  0  0  0  0  0  0  0  0
    2.5810   -0.9313   -0.5297 H   0  0  0  0  0  0  0  0  0  0  0  0
    1.5525   -1.1007    2.0134 H   0  0  0  0  0  0  0  0  0  0  0  0
   -0.7444    0.2213    1.8507 H   0  0  0  0  0  0  0  0  0  0  0  0
  1  2  2  0
  2  3  1  0
  3  4  1  0
  4  5  1  0
  5  6  2  0
  6  7  1  0
  7  8  1  0
  8  9  2  0
  7  3  1  0
  8  4  1  0
  2 10  1  0
  3 11  1  0
  4 12  1  0
  5 13  1  0
  6 14  1  0
  7 15  1  0
M  END
