
     RDKit          3D

 19 20  0  0  0  0  0  0  0  0999 V2000
    3.3503   -0.9128    0.0572 O   0  0  0  0  0  0  0  0  0  0  0  0
    2.5750    0.0238   -0.2795 C   0  0  0  0  0  0  0  0  0  0  0  0
    1.1561   -0.1583   -0.2750 C   0  0  0  0  0  0  0  0  0  0  0  0
    0.5703   -1.3201    0.0826 C   0  0  0  0  0  0  0  0  0  0  0  0
   -0.8757   -1.5374    0.0973 C   0  0  0  0  0  0  0  0  0  0  0  0
   -1.7040   -0.2541    0.1969 C   0  0  0  0  0  0  0  0  0  0  0  0
   -0.7713    0.8003    0.5911 C   0  0  0  0  0  0  0  0  0  0  0  0
   -0.3321    2.0026   -0.0029 C   0  0  0  0  0  0  0  0  0  0  0  0
    0.1933    0.8664   -0.6458 C   0  0  0  0  0  0  0  0  0  0  0  0
    3.0158    0.9658   -0.5707 H   0  0  0  0  0  0  0  0  0  0  0  0
    1.2011   -2.1571    0.3817 H   0  0  0  0  0  0  0  0  0  0  0  0
   -1.1113   -2.0984    1.0504 H   0  0  0  0  0  0  0  0  0  0  0  0
   -1.2438   -2.1935   -0.7140 H   0  0  0  0  0  0  0  0  0  0  0  0
   -2.1797   -0.1046   -0.8149 H   0  0  0  0  0  0  0  0  0  0  0  0
   -2.5647   -0.3822    0.8930 H   0  0  0  0  0  0  0  0  0  0  0  0
   -0.2962    0.5472    1.5872 H   0  0  0  0  0  0  0  0  0  0  0  0
   -1.0807    2.6358   -0.5509 H   0  0  0  0  0  0  0  0  0  0  0  0
    0.3578    2.6785    0.5638 H   0  0  0  0  0  0  0  0  0  0  0  0
   -0.2602    0.5981   -1.6479 H   0  0  0  0  0  0  0  0  0  0  0  0
  1  2  2  0
  2  3  1  0
  3  4  2  0
  4  5  1  0
  5  6  1  0
  6  7  1  0
  7  8  1  0
  8  9  1  0
  9  3  1  0
  9  7  1  0
  2 10  1  0
  4 11  1  0
  5 12  1  0
  5 13  1  0
  6 14  1  0
  6 15  1  0
  7 16  1  0
  8 17  1  0
  8 18  1  0
  9 19  1  0
M  END
