
     RDKit          3D

 19 20  0  0  0  0  0  0  0  0999 V2000
    1.9069    0.9089    1.6456 O   0  0  0  0  0  0  0  0  0  0  0  0
    2.3020   -0.0298    0.9736 C   0  0  0  0  0  0  0  0  0  0  0  0
    1.6077   -0.4747   -0.2559 C   0  0  0  0  0  0  0  0  0  0  0  0
    1.1313    0.5659   -1.2485 C   0  0  0  0  0  0  0  0  0  0  0  0
    0.1636   -0.3197   -0.4538 C   0  0  0  0  0  0  0  0  0  0  0  0
   -0.4884   -1.3489   -1.1694 O   0  0  0  0  0  0  0  0  0  0  0  0
   -0.7312    0.4465    0.4492 C   0  0  0  0  0  0  0  0  0  0  0  0
   -2.2095    0.4603    0.0131 C   0  0  0  0  0  0  0  0  0  0  0  0
   -1.7650   -0.2900    1.2435 C   0  0  0  0  0  0  0  0  0  0  0  0
    3.2018   -0.5165    1.3435 H   0  0  0  0  0  0  0  0  0  0  0  0
    2.0858   -1.3407   -0.7583 H   0  0  0  0  0  0  0  0  0  0  0  0
    1.1892    0.3651   -2.3292 H   0  0  0  0  0  0  0  0  0  0  0  0
    1.2617    1.6075   -0.9569 H   0  0  0  0  0  0  0  0  0  0  0  0
   -0.1027   -1.4488   -2.0757 H   0  0  0  0  0  0  0  0  0  0  0  0
   -0.3947    1.3886    0.9233 H   0  0  0  0  0  0  0  0  0  0  0  0
   -2.7619    1.4142    0.1256 H   0  0  0  0  0  0  0  0  0  0  0  0
   -2.4816   -0.0971   -0.8980 H   0  0  0  0  0  0  0  0  0  0  0  0
   -1.7835   -1.4147    1.2176 H   0  0  0  0  0  0  0  0  0  0  0  0
   -2.1314    0.1240    2.2106 H   0  0  0  0  0  0  0  0  0  0  0  0
  1  2  2  0
  2  3  1  0
  3  4  1  0
  4  5  1  0
  5  6  1  0
  5  7  1  0
  7  8  1  0
  8  9  1  0
  5  3  1  0
  9  7  1  0
  2 10  1  0
  3 11  1  0
  4 12  1  0
  4 13  1  0
  6 14  1  0
  7 15  1  0
  8 16  1  0
  8 17  1  0
  9 18  1  0
  9 19  1  0
M  END
