
     RDKit          3D

 17 18  0  0  0  0  0  0  0  0999 V2000
    2.7349    1.4987    0.6295 O   0  0  0  0  0  0  0  0  0  0  0  0
    2.5424    0.4171    0.1007 C   0  0  0  0  0  0  0  0  0  0  0  0
    1.3162   -0.3756    0.3448 C   0  0  0  0  0  0  0  0  0  0  0  0
    0.4177    0.2248    1.2238 O   0  0  0  0  0  0  0  0  0  0  0  0
   -0.2272    0.7898    0.1516 C   0  0  0  0  0  0  0  0  0  0  0  0
   -1.7233    0.5248    0.0874 C   0  0  0  0  0  0  0  0  0  0  0  0
   -1.7029   -0.9938    0.0416 C   0  0  0  0  0  0  0  0  0  0  0  0
   -0.6280   -1.3309   -0.7347 O   0  0  0  0  0  0  0  0  0  0  0  0
    0.2805   -0.3155   -0.7424 C   0  0  0  0  0  0  0  0  0  0  0  0
    3.3080    0.0423   -0.5672 H   0  0  0  0  0  0  0  0  0  0  0  0
    1.5675   -1.4273    0.5727 H   0  0  0  0  0  0  0  0  0  0  0  0
    0.0722    1.8115   -0.1392 H   0  0  0  0  0  0  0  0  0  0  0  0
   -2.0949    0.9668   -0.8597 H   0  0  0  0  0  0  0  0  0  0  0  0
   -2.2534    0.9025    0.9791 H   0  0  0  0  0  0  0  0  0  0  0  0
   -1.5703   -1.3355    1.1091 H   0  0  0  0  0  0  0  0  0  0  0  0
   -2.6684   -1.4055   -0.3254 H   0  0  0  0  0  0  0  0  0  0  0  0
    0.6291    0.0058   -1.7368 H   0  0  0  0  0  0  0  0  0  0  0  0
  1  2  2  0
  2  3  1  0
  3  4  1  0
  4  5  1  0
  5  6  1  0
  6  7  1  0
  7  8  1  0
  8  9  1  0
  9  3  1  0
  9  5  1  0
  2 10  1  0
  3 11  1  0
  5 12  1  0
  6 13  1  0
  6 14  1  0
  7 15  1  0
  7 16  1  0
  9 17  1  0
M  END
