
     RDKit          3D

 17 17  0  0  0  0  0  0  0  0999 V2000
    4.4624   -0.4652    0.6809 O   0  0  0  0  0  0  0  0  0  0  0  0
    3.9587    0.0715   -0.7791 C   0  0  0  0  0  0  0  0  0  0  0  0
    2.5786   -0.4677   -0.4555 C   0  0  0  0  0  0  0  0  0  0  0  0
    1.4956   -0.8693   -0.2051 C   0  0  0  0  0  0  0  0  0  0  0  0
    0.1092   -1.3597    0.1282 C   0  0  0  0  0  0  0  0  0  0  0  0
   -0.6414    0.0506    0.0612 C   0  0  0  0  0  0  0  0  0  0  0  0
   -2.0898    0.0421    0.2798 C   0  0  0  0  0  0  0  0  0  0  0  0
   -2.7994    1.3798    0.2859 C   0  0  0  0  0  0  0  0  0  0  0  0
   -2.8981    0.5168   -0.7851 O   0  0  0  0  0  0  0  0  0  0  0  0
    4.7951    0.3823   -0.9417 H   0  0  0  0  0  0  0  0  0  0  0  0
   -0.2506   -2.0020   -0.5907 H   0  0  0  0  0  0  0  0  0  0  0  0
    0.1092   -1.6279    1.1546 H   0  0  0  0  0  0  0  0  0  0  0  0
   -0.1323    0.7394    0.7583 H   0  0  0  0  0  0  0  0  0  0  0  0
   -0.4202    0.4992   -0.9617 H   0  0  0  0  0  0  0  0  0  0  0  0
   -2.4958   -0.7507    0.9485 H   0  0  0  0  0  0  0  0  0  0  0  0
   -3.6284    1.5698    0.9763 H   0  0  0  0  0  0  0  0  0  0  0  0
   -2.1527    2.2910    0.0953 H   0  0  0  0  0  0  0  0  0  0  0  0
  1  2  2  0
  2  3  1  0
  3  4  3  0
  4  5  1  0
  5  6  1  0
  6  7  1  0
  7  8  1  0
  8  9  1  0
  9  7  1  0
  2 10  1  0
  5 11  1  0
  5 12  1  0
  6 13  1  0
  6 14  1  0
  7 15  1  0
  8 16  1  0
  8 17  1  0
M  END
