
     RDKit          3D

 17 18  0  0  0  0  0  0  0  0999 V2000
   -1.7508   -1.8229    0.8333 O   0  0  0  0  0  0  0  0  0  0  0  0
   -1.6537   -1.3760   -0.2836 C   0  0  0  0  0  0  0  0  0  0  0  0
   -0.5302   -0.5430   -0.7042 C   0  0  0  0  0  0  0  0  0  0  0  0
    0.8040   -1.1368   -0.2300 C   0  0  0  0  0  0  0  0  0  0  0  0
    1.2464    0.3155    0.0018 C   0  0  0  0  0  0  0  0  0  0  0  0
    2.0045    0.4827    1.1597 O   0  0  0  0  0  0  0  0  0  0  0  0
   -0.1962    0.6544    0.1087 C   0  0  0  0  0  0  0  0  0  0  0  0
   -0.8392    1.8391    0.2993 C   0  0  0  0  0  0  0  0  0  0  0  0
   -0.6996    0.8630    1.3648 O   0  0  0  0  0  0  0  0  0  0  0  0
   -2.4462   -1.6106   -1.0042 H   0  0  0  0  0  0  0  0  0  0  0  0
   -0.4988   -0.3618   -1.8060 H   0  0  0  0  0  0  0  0  0  0  0  0
    0.6970   -1.6260    0.7556 H   0  0  0  0  0  0  0  0  0  0  0  0
    1.3525   -1.6671   -1.0034 H   0  0  0  0  0  0  0  0  0  0  0  0
    1.7426    0.6645   -0.9283 H   0  0  0  0  0  0  0  0  0  0  0  0
    2.9650    0.5476    0.8920 H   0  0  0  0  0  0  0  0  0  0  0  0
   -1.9113    1.9756    0.0526 H   0  0  0  0  0  0  0  0  0  0  0  0
   -0.2863    2.8017    0.4919 H   0  0  0  0  0  0  0  0  0  0  0  0
  1  2  2  0
  2  3  1  0
  3  4  1  0
  4  5  1  0
  5  6  1  0
  5  7  1  0
  7  8  1  0
  8  9  1  0
  7  3  1  0
  9  7  1  0
  2 10  1  0
  3 11  1  0
  4 12  1  0
  4 13  1  0
  5 14  1  0
  6 15  1  0
  8 16  1  0
  8 17  1  0
M  END
