
     RDKit          3D

 19 20  0  0  0  0  0  0  0  0999 V2000
    2.7499    0.9867   -1.2587 O   0  0  0  0  0  0  0  0  0  0  0  0
    2.9489   -0.0109   -0.6106 C   0  0  0  0  0  0  0  0  0  0  0  0
    1.8220   -0.8943   -0.2780 C   0  0  0  0  0  0  0  0  0  0  0  0
    0.7926   -0.0073    0.4204 C   0  0  0  0  0  0  0  0  0  0  0  0
   -0.4622   -0.6951    0.8606 C   0  0  0  0  0  0  0  0  0  0  0  0
   -1.0597    0.2880   -0.0605 C   0  0  0  0  0  0  0  0  0  0  0  0
   -2.1569    1.1944    0.2187 C   0  0  0  0  0  0  0  0  0  0  0  0
   -2.2681    0.1720   -0.8388 C   0  0  0  0  0  0  0  0  0  0  0  0
    0.1480    0.7717   -0.4977 O   0  0  0  0  0  0  0  0  0  0  0  0
    3.9428   -0.2469   -0.2813 H   0  0  0  0  0  0  0  0  0  0  0  0
    2.0964   -1.7883    0.3278 H   0  0  0  0  0  0  0  0  0  0  0  0
    1.3051   -1.2204   -1.2144 H   0  0  0  0  0  0  0  0  0  0  0  0
    1.3081    0.5511    1.2489 H   0  0  0  0  0  0  0  0  0  0  0  0
   -0.4815   -1.7539    0.5603 H   0  0  0  0  0  0  0  0  0  0  0  0
   -0.7223   -0.5311    1.9397 H   0  0  0  0  0  0  0  0  0  0  0  0
   -2.0432    2.2499   -0.1540 H   0  0  0  0  0  0  0  0  0  0  0  0
   -2.7210    1.1568    1.1582 H   0  0  0  0  0  0  0  0  0  0  0  0
   -2.2453    0.4599   -1.9157 H   0  0  0  0  0  0  0  0  0  0  0  0
   -2.9535   -0.6822   -0.6098 H   0  0  0  0  0  0  0  0  0  0  0  0
  1  2  2  0
  2  3  1  0
  3  4  1  0
  4  5  1  0
  5  6  1  0
  6  7  1  0
  7  8  1  0
  6  9  1  0
  9  4  1  0
  8  6  1  0
  2 10  1  0
  3 11  1  0
  3 12  1  0
  4 13  1  0
  5 14  1  0
  5 15  1  0
  7 16  1  0
  7 17  1  0
  8 18  1  0
  8 19  1  0
M  END
