
     RDKit          3D

 19 19  0  0  0  0  0  0  0  0999 V2000
    3.0766   -1.4285    0.9359 O   0  0  0  0  0  0  0  0  0  0  0  0
    2.5730   -0.3526    0.5408 C   0  0  0  0  0  0  0  0  0  0  0  0
    1.1979   -0.3378    0.0563 C   0  0  0  0  0  0  0  0  0  0  0  0
    0.4810   -1.4495    0.0313 C   0  0  0  0  0  0  0  0  0  0  0  0
   -0.9104   -1.3383   -0.4786 C   0  0  0  0  0  0  0  0  0  0  0  0
   -1.5907   -0.2161    0.2672 C   0  0  0  0  0  0  0  0  0  0  0  0
   -0.8336    1.0837    0.1585 C   0  0  0  0  0  0  0  0  0  0  0  0
   -1.5498    1.9537   -0.6244 O   0  0  0  0  0  0  0  0  0  0  0  0
    0.5442    0.9028   -0.4245 C   0  0  0  0  0  0  0  0  0  0  0  0
    3.1682    0.5364    0.5685 H   0  0  0  0  0  0  0  0  0  0  0  0
    0.8693   -2.4006    0.3607 H   0  0  0  0  0  0  0  0  0  0  0  0
   -0.9499   -1.1750   -1.5749 H   0  0  0  0  0  0  0  0  0  0  0  0
   -1.4491   -2.2883   -0.2867 H   0  0  0  0  0  0  0  0  0  0  0  0
   -1.6412   -0.4980    1.3391 H   0  0  0  0  0  0  0  0  0  0  0  0
   -2.6453   -0.1301   -0.0927 H   0  0  0  0  0  0  0  0  0  0  0  0
   -0.7028    1.5448    1.1652 H   0  0  0  0  0  0  0  0  0  0  0  0
   -1.3446    2.8766   -0.3251 H   0  0  0  0  0  0  0  0  0  0  0  0
    1.1683    1.7517   -0.0756 H   0  0  0  0  0  0  0  0  0  0  0  0
    0.5391    0.9653   -1.5410 H   0  0  0  0  0  0  0  0  0  0  0  0
  1  2  2  0
  2  3  1  0
  3  4  2  0
  4  5  1  0
  5  6  1  0
  6  7  1  0
  7  8  1  0
  7  9  1  0
  9  3  1  0
  2 10  1  0
  4 11  1  0
  5 12  1  0
  5 13  1  0
  6 14  1  0
  6 15  1  0
  7 16  1  0
  8 17  1  0
  9 18  1  0
  9 19  1  0
M  END
