
     RDKit          3D

 16 17  0  0  0  0  0  0  0  0999 V2000
    2.3270    0.7889   -1.0658 O   0  0  0  0  0  0  0  0  0  0  0  0
    1.7989   -0.2966   -0.9235 C   0  0  0  0  0  0  0  0  0  0  0  0
    1.2072   -0.6888    0.3375 C   0  0  0  0  0  0  0  0  0  0  0  0
   -0.1479   -0.1733    0.6396 C   0  0  0  0  0  0  0  0  0  0  0  0
   -1.1970   -0.5995   -0.3791 C   0  0  0  0  0  0  0  0  0  0  0  0
   -1.7313    0.8015   -0.4317 C   0  0  0  0  0  0  0  0  0  0  0  0
   -1.7807    1.5956    0.6833 O   0  0  0  0  0  0  0  0  0  0  0  0
   -0.4839    1.2342    0.3413 C   0  0  0  0  0  0  0  0  0  0  0  0
    1.7866   -0.9609   -1.7752 H   0  0  0  0  0  0  0  0  0  0  0  0
    1.1459   -1.8159    0.3658 H   0  0  0  0  0  0  0  0  0  0  0  0
    1.9312   -0.4518    1.1537 H   0  0  0  0  0  0  0  0  0  0  0  0
   -0.4281   -0.4268    1.6930 H   0  0  0  0  0  0  0  0  0  0  0  0
   -1.8964   -1.3597   -0.0001 H   0  0  0  0  0  0  0  0  0  0  0  0
   -0.7015   -0.8446   -1.3578 H   0  0  0  0  0  0  0  0  0  0  0  0
   -1.9835    1.2881   -1.3677 H   0  0  0  0  0  0  0  0  0  0  0  0
    0.1535    1.9097   -0.2352 H   0  0  0  0  0  0  0  0  0  0  0  0
  1  2  2  0
  2  3  1  0
  3  4  1  0
  4  5  1  0
  5  6  1  0
  6  7  1  0
  7  8  1  0
  8  4  1  0
  8  6  1  0
  2  9  1  0
  3 10  1  0
  3 11  1  0
  4 12  1  0
  5 13  1  0
  5 14  1  0
  6 15  1  0
  8 16  1  0
M  END
