
     RDKit          3D

 21 22  0  0  0  0  0  0  0  0999 V2000
    3.0645    0.0863   -0.4225 O   0  0  0  0  0  0  0  0  0  0  0  0
    2.1662   -0.3621    0.2583 C   0  0  0  0  0  0  0  0  0  0  0  0
    0.9576    0.4573    0.4434 C   0  0  0  0  0  0  0  0  0  0  0  0
    0.2180    0.6924   -0.8859 C   0  0  0  0  0  0  0  0  0  0  0  0
   -0.0203   -0.7318   -1.3159 C   0  0  0  0  0  0  0  0  0  0  0  0
   -0.4356   -1.3721    0.0108 C   0  0  0  0  0  0  0  0  0  0  0  0
   -0.1745   -0.3614    1.0842 C   0  0  0  0  0  0  0  0  0  0  0  0
   -1.2906    0.6640    1.0235 C   0  0  0  0  0  0  0  0  0  0  0  0
   -1.0869    1.2401   -0.3791 C   0  0  0  0  0  0  0  0  0  0  0  0
    2.3235   -1.3455    0.6845 H   0  0  0  0  0  0  0  0  0  0  0  0
    1.1117    1.4075    0.9540 H   0  0  0  0  0  0  0  0  0  0  0  0
    0.7591    1.3100   -1.5749 H   0  0  0  0  0  0  0  0  0  0  0  0
    0.9331   -1.1853   -1.5932 H   0  0  0  0  0  0  0  0  0  0  0  0
   -0.8036   -0.8161   -2.0808 H   0  0  0  0  0  0  0  0  0  0  0  0
    0.0312   -2.3406    0.1768 H   0  0  0  0  0  0  0  0  0  0  0  0
   -1.5513   -1.5253   -0.0219 H   0  0  0  0  0  0  0  0  0  0  0  0
    0.0573   -0.7341    2.0582 H   0  0  0  0  0  0  0  0  0  0  0  0
   -2.2411    0.1256    1.1089 H   0  0  0  0  0  0  0  0  0  0  0  0
   -1.1087    1.4110    1.8086 H   0  0  0  0  0  0  0  0  0  0  0  0
   -1.9401    1.0225   -1.0418 H   0  0  0  0  0  0  0  0  0  0  0  0
   -0.9694    2.3576   -0.2953 H   0  0  0  0  0  0  0  0  0  0  0  0
  1  2  2  0
  2  3  1  0
  3  4  1  0
  4  5  1  0
  5  6  1  0
  6  7  1  0
  7  8  1  0
  8  9  1  0
  7  3  1  0
  9  4  1  0
  2 10  1  0
  3 11  1  0
  4 12  1  0
  5 13  1  0
  5 14  1  0
  6 15  1  0
  6 16  1  0
  7 17  1  0
  8 18  1  0
  8 19  1  0
  9 20  1  0
  9 21  1  0
M  END
