
     RDKit          3D

 15 17  0  0  0  0  0  0  0  0999 V2000
    1.7966   -1.5691   -0.2169 O   0  0  0  0  0  0  0  0  0  0  0  0
    2.1433   -0.4690    0.1669 C   0  0  0  0  0  0  0  0  0  0  0  0
    1.2347    0.6837    0.0992 C   0  0  0  0  0  0  0  0  0  0  0  0
   -0.0706    0.3012   -0.4598 C   0  0  0  0  0  0  0  0  0  0  0  0
   -0.1482   -0.2288   -1.7314 O   0  0  0  0  0  0  0  0  0  0  0  0
   -0.6964   -0.9314   -0.6724 C   0  0  0  0  0  0  0  0  0  0  0  0
   -2.0303   -0.3568   -0.1709 C   0  0  0  0  0  0  0  0  0  0  0  0
   -2.4565    0.8288   -0.7101 O   0  0  0  0  0  0  0  0  0  0  0  0
   -1.3598    0.8694    0.1274 C   0  0  0  0  0  0  0  0  0  0  0  0
    3.1407   -0.3034    0.5740 H   0  0  0  0  0  0  0  0  0  0  0  0
    1.1840    1.2550    1.0483 H   0  0  0  0  0  0  0  0  0  0  0  0
    1.7116    1.4075   -0.6275 H   0  0  0  0  0  0  0  0  0  0  0  0
   -0.4651   -1.9552   -0.4432 H   0  0  0  0  0  0  0  0  0  0  0  0
   -2.6475   -0.9707    0.4811 H   0  0  0  0  0  0  0  0  0  0  0  0
   -1.3366    1.4390    1.0455 H   0  0  0  0  0  0  0  0  0  0  0  0
  1  2  2  0
  2  3  1  0
  3  4  1  0
  4  5  1  0
  5  6  1  0
  6  7  1  0
  7  8  1  0
  8  9  1  0
  6  4  1  0
  9  7  1  0
  9  4  1  0
  2 10  1  0
  3 11  1  0
  3 12  1  0
  6 13  1  0
  7 14  1  0
  9 15  1  0
M  END
