
     RDKit          3D

 15 16  0  0  0  0  0  0  0  0999 V2000
    1.9332   -0.3625    1.1639 O   0  0  0  0  0  0  0  0  0  0  0  0
    1.8106   -0.2757   -0.0367 C   0  0  0  0  0  0  0  0  0  0  0  0
    0.6089    0.3452   -0.6263 C   0  0  0  0  0  0  0  0  0  0  0  0
   -0.1599    1.1574    0.4383 C   0  0  0  0  0  0  0  0  0  0  0  0
   -1.3513    0.2169    0.5453 C   0  0  0  0  0  0  0  0  0  0  0  0
   -1.6837    0.0747   -0.8251 O   0  0  0  0  0  0  0  0  0  0  0  0
   -0.4924   -0.6620   -0.9078 C   0  0  0  0  0  0  0  0  0  0  0  0
   -0.8115   -1.1345    0.4524 C   0  0  0  0  0  0  0  0  0  0  0  0
   -0.6820   -2.1191    1.1079 O   0  0  0  0  0  0  0  0  0  0  0  0
    2.5835   -0.6541   -0.6692 H   0  0  0  0  0  0  0  0  0  0  0  0
    0.8145    0.9639   -1.5137 H   0  0  0  0  0  0  0  0  0  0  0  0
   -0.4753    2.1012   -0.0054 H   0  0  0  0  0  0  0  0  0  0  0  0
    0.4109    1.2361    1.3639 H   0  0  0  0  0  0  0  0  0  0  0  0
   -2.1355    0.4633    1.2161 H   0  0  0  0  0  0  0  0  0  0  0  0
   -0.3699   -1.3510   -1.7037 H   0  0  0  0  0  0  0  0  0  0  0  0
  1  2  2  0
  2  3  1  0
  3  4  1  0
  4  5  1  0
  5  6  1  0
  6  7  1  0
  7  8  1  0
  8  9  2  0
  7  3  1  0
  8  5  1  0
  2 10  1  0
  3 11  1  0
  4 12  1  0
  4 13  1  0
  5 14  1  0
  7 15  1  0
M  END
