
     RDKit          3D

 19 20  0  0  0  0  0  0  0  0999 V2000
    3.3664    1.3071   -0.0851 O   0  0  0  0  0  0  0  0  0  0  0  0
    3.1856    0.1008   -0.0953 C   0  0  0  0  0  0  0  0  0  0  0  0
    1.8120   -0.5074   -0.0431 C   0  0  0  0  0  0  0  0  0  0  0  0
    0.9139    0.5166    0.0126 O   0  0  0  0  0  0  0  0  0  0  0  0
   -0.3985    0.1747    0.0661 C   0  0  0  0  0  0  0  0  0  0  0  0
   -1.3788    1.3116    0.1272 C   0  0  0  0  0  0  0  0  0  0  0  0
   -2.1684    0.6187   -0.9753 C   0  0  0  0  0  0  0  0  0  0  0  0
   -1.1496   -0.4981   -0.9858 C   0  0  0  0  0  0  0  0  0  0  0  0
   -0.9059   -1.1787    0.3274 C   0  0  0  0  0  0  0  0  0  0  0  0
    4.0489   -0.5481   -0.1438 H   0  0  0  0  0  0  0  0  0  0  0  0
    1.7267   -1.1269   -0.9637 H   0  0  0  0  0  0  0  0  0  0  0  0
    1.8013   -1.1875    0.8199 H   0  0  0  0  0  0  0  0  0  0  0  0
   -1.9298    1.3081    1.0959 H   0  0  0  0  0  0  0  0  0  0  0  0
   -0.9355    2.2772   -0.1527 H   0  0  0  0  0  0  0  0  0  0  0  0
   -2.1082    1.2297   -1.8943 H   0  0  0  0  0  0  0  0  0  0  0  0
   -3.1887    0.3227   -0.6665 H   0  0  0  0  0  0  0  0  0  0  0  0
   -0.7391   -0.8781   -1.9201 H   0  0  0  0  0  0  0  0  0  0  0  0
   -1.7643   -1.2544    1.0382 H   0  0  0  0  0  0  0  0  0  0  0  0
   -0.1879   -1.9879    0.4174 H   0  0  0  0  0  0  0  0  0  0  0  0
  1  2  2  0
  2  3  1  0
  3  4  1  0
  4  5  1  0
  5  6  1  0
  6  7  1  0
  7  8  1  0
  8  9  1  0
  8  5  1  0
  9  5  1  0
  2 10  1  0
  3 11  1  0
  3 12  1  0
  6 13  1  0
  6 14  1  0
  7 15  1  0
  7 16  1  0
  8 17  1  0
  9 18  1  0
  9 19  1  0
M  END
