
     RDKit          3D

 17 18  0  0  0  0  0  0  0  0999 V2000
   -3.0067   -1.0190   -0.1933 O   0  0  0  0  0  0  0  0  0  0  0  0
   -1.8431   -1.1039    0.1605 C   0  0  0  0  0  0  0  0  0  0  0  0
   -0.9568    0.0624    0.1315 C   0  0  0  0  0  0  0  0  0  0  0  0
    0.4622   -0.1300    0.5846 C   0  0  0  0  0  0  0  0  0  0  0  0
    1.2968   -1.1079   -0.1505 C   0  0  0  0  0  0  0  0  0  0  0  0
    1.4989    0.3797   -0.3808 C   0  0  0  0  0  0  0  0  0  0  0  0
    2.5800    1.0056    0.2305 O   0  0  0  0  0  0  0  0  0  0  0  0
   -1.5317    1.4568    0.1577 C   0  0  0  0  0  0  0  0  0  0  0  0
   -1.1703    0.8523   -1.0446 O   0  0  0  0  0  0  0  0  0  0  0  0
   -1.4861   -2.0670    0.4963 H   0  0  0  0  0  0  0  0  0  0  0  0
    0.6009    0.0396    1.6780 H   0  0  0  0  0  0  0  0  0  0  0  0
    0.7845   -1.7006   -0.9229 H   0  0  0  0  0  0  0  0  0  0  0  0
    2.1634   -1.5963    0.3230 H   0  0  0  0  0  0  0  0  0  0  0  0
    1.1580    0.7867   -1.3699 H   0  0  0  0  0  0  0  0  0  0  0  0
    2.8828    0.3792    0.9603 H   0  0  0  0  0  0  0  0  0  0  0  0
   -2.5788    1.4847    0.4740 H   0  0  0  0  0  0  0  0  0  0  0  0
   -0.8541    2.2777    0.4474 H   0  0  0  0  0  0  0  0  0  0  0  0
  1  2  2  0
  2  3  1  0
  3  4  1  0
  4  5  1  0
  5  6  1  0
  6  7  1  0
  3  8  1  0
  8  9  1  0
  9  3  1  0
  6  4  1  0
  2 10  1  0
  4 11  1  0
  5 12  1  0
  5 13  1  0
  6 14  1  0
  7 15  1  0
  8 16  1  0
  8 17  1  0
M  END
