
     RDKit          3D

 17 17  0  0  0  0  0  0  0  0999 V2000
   -3.2329    0.0223    0.0079 O   0  0  0  0  0  0  0  0  0  0  0  0
   -2.1386    0.1301   -0.6916 C   0  0  0  0  0  0  0  0  0  0  0  0
   -0.8872    0.5307    0.0343 C   0  0  0  0  0  0  0  0  0  0  0  0
   -0.3938    1.7537   -0.4227 O   0  0  0  0  0  0  0  0  0  0  0  0
   -0.4282   -0.2459    1.1577 C   0  0  0  0  0  0  0  0  0  0  0  0
    0.1796   -0.5892   -0.1839 C   0  0  0  0  0  0  0  0  0  0  0  0
   -0.2161   -1.7844   -0.7303 O   0  0  0  0  0  0  0  0  0  0  0  0
    1.5668   -0.1342   -0.4954 C   0  0  0  0  0  0  0  0  0  0  0  0
    1.8306    1.1118    0.0756 O   0  0  0  0  0  0  0  0  0  0  0  0
   -2.2815   -0.1078   -1.7354 H   0  0  0  0  0  0  0  0  0  0  0  0
   -0.1543    2.3304    0.3593 H   0  0  0  0  0  0  0  0  0  0  0  0
   -1.1430   -1.0086    1.5911 H   0  0  0  0  0  0  0  0  0  0  0  0
    0.3222    0.0483    1.8946 H   0  0  0  0  0  0  0  0  0  0  0  0
    0.1971   -2.5300   -0.2796 H   0  0  0  0  0  0  0  0  0  0  0  0
    2.2480   -0.8295    0.0820 H   0  0  0  0  0  0  0  0  0  0  0  0
    1.7956   -0.1402   -1.5583 H   0  0  0  0  0  0  0  0  0  0  0  0
    2.7358    1.4424   -0.2269 H   0  0  0  0  0  0  0  0  0  0  0  0
  1  2  2  0
  2  3  1  0
  3  4  1  0
  3  5  1  0
  5  6  1  0
  6  7  1  0
  6  8  1  0
  8  9  1  0
  6  3  1  0
  2 10  1  0
  4 11  1  0
  5 12  1  0
  5 13  1  0
  7 14  1  0
  8 15  1  0
  8 16  1  0
  9 17  1  0
M  END
