
     RDKit          3D

 17 17  0  0  0  0  0  0  0  0999 V2000
    3.0317   -0.5142   -0.9307 O   0  0  0  0  0  0  0  0  0  0  0  0
    2.4235    0.2831   -0.2370 C   0  0  0  0  0  0  0  0  0  0  0  0
    0.9612    0.4164   -0.2315 C   0  0  0  0  0  0  0  0  0  0  0  0
    0.3751    0.2514    1.1739 C   0  0  0  0  0  0  0  0  0  0  0  0
   -0.8757   -0.5150    1.0777 C   0  0  0  0  0  0  0  0  0  0  0  0
   -1.1350   -1.3719    1.8749 O   0  0  0  0  0  0  0  0  0  0  0  0
   -1.8031   -0.2043   -0.0225 C   0  0  0  0  0  0  0  0  0  0  0  0
   -0.9786    0.0259   -1.2699 C   0  0  0  0  0  0  0  0  0  0  0  0
    0.3312   -0.4641   -1.1035 O   0  0  0  0  0  0  0  0  0  0  0  0
    3.0038    0.9281    0.4113 H   0  0  0  0  0  0  0  0  0  0  0  0
    0.7184    1.4446   -0.6344 H   0  0  0  0  0  0  0  0  0  0  0  0
    1.0927   -0.2428    1.8473 H   0  0  0  0  0  0  0  0  0  0  0  0
    0.1176    1.2706    1.5322 H   0  0  0  0  0  0  0  0  0  0  0  0
   -2.3564    0.7284    0.2689 H   0  0  0  0  0  0  0  0  0  0  0  0
   -2.5834   -0.9825   -0.1807 H   0  0  0  0  0  0  0  0  0  0  0  0
   -0.8658    1.1226   -1.4035 H   0  0  0  0  0  0  0  0  0  0  0  0
   -1.4573   -0.3666   -2.1724 H   0  0  0  0  0  0  0  0  0  0  0  0
  1  2  2  0
  2  3  1  0
  3  4  1  0
  4  5  1  0
  5  6  2  0
  5  7  1  0
  7  8  1  0
  8  9  1  0
  9  3  1  0
  2 10  1  0
  3 11  1  0
  4 12  1  0
  4 13  1  0
  7 14  1  0
  7 15  1  0
  8 16  1  0
  8 17  1  0
M  END
