
     RDKit          3D

 15 16  0  0  0  0  0  0  0  0999 V2000
    2.7435    0.4219    1.0957 O   0  0  0  0  0  0  0  0  0  0  0  0
    2.0517   -0.0535    0.1803 C   0  0  0  0  0  0  0  0  0  0  0  0
    0.7068    0.0305    0.1432 C   0  0  0  0  0  0  0  0  0  0  0  0
   -0.2295   -0.9807   -0.4893 C   0  0  0  0  0  0  0  0  0  0  0  0
   -1.1357    0.0963    0.0543 C   0  0  0  0  0  0  0  0  0  0  0  0
   -2.3812    0.1504    0.0128 O   0  0  0  0  0  0  0  0  0  0  0  0
   -0.1435    1.0711   -0.5334 C   0  0  0  0  0  0  0  0  0  0  0  0
   -0.2496    0.0796    1.2391 C   0  0  0  0  0  0  0  0  0  0  0  0
   -0.4501    0.1024    2.4251 O   0  0  0  0  0  0  0  0  0  0  0  0
    2.6684   -0.5495   -0.5929 H   0  0  0  0  0  0  0  0  0  0  0  0
   -0.3536   -1.9243    0.0402 H   0  0  0  0  0  0  0  0  0  0  0  0
   -0.0846   -1.0002   -1.5698 H   0  0  0  0  0  0  0  0  0  0  0  0
   -2.9192   -0.6150   -0.3280 H   0  0  0  0  0  0  0  0  0  0  0  0
   -0.1098    1.1011   -1.6275 H   0  0  0  0  0  0  0  0  0  0  0  0
   -0.1134    2.0700   -0.0497 H   0  0  0  0  0  0  0  0  0  0  0  0
  1  2  2  0
  2  3  1  0
  3  4  1  0
  4  5  1  0
  5  6  1  0
  5  7  1  0
  5  8  1  0
  8  9  2  0
  7  3  1  0
  8  3  1  0
  2 10  1  0
  4 11  1  0
  4 12  1  0
  6 13  1  0
  7 14  1  0
  7 15  1  0
M  END
