
     RDKit          3D

 15 17  0  0  0  0  0  0  0  0999 V2000
    2.8945   -0.5183   -0.3961 O   0  0  0  0  0  0  0  0  0  0  0  0
    2.1066    0.1639    0.2579 C   0  0  0  0  0  0  0  0  0  0  0  0
    0.6895    0.0709   -0.0402 C   0  0  0  0  0  0  0  0  0  0  0  0
   -0.0110    1.1646   -0.7698 C   0  0  0  0  0  0  0  0  0  0  0  0
   -1.3171    0.9854   -0.6603 C   0  0  0  0  0  0  0  0  0  0  0  0
   -1.6083   -0.2320    0.1442 C   0  0  0  0  0  0  0  0  0  0  0  0
   -1.2662   -1.3614   -0.6016 O   0  0  0  0  0  0  0  0  0  0  0  0
    0.0558   -1.2975   -0.1672 C   0  0  0  0  0  0  0  0  0  0  0  0
   -0.3336   -0.3993    0.9022 C   0  0  0  0  0  0  0  0  0  0  0  0
    2.5463    0.7947    1.0230 H   0  0  0  0  0  0  0  0  0  0  0  0
    0.4692    1.9681   -1.2987 H   0  0  0  0  0  0  0  0  0  0  0  0
   -2.0533    1.6416   -1.1004 H   0  0  0  0  0  0  0  0  0  0  0  0
   -2.5451   -0.2591    0.6827 H   0  0  0  0  0  0  0  0  0  0  0  0
    0.6199   -2.1950    0.0687 H   0  0  0  0  0  0  0  0  0  0  0  0
   -0.2473   -0.5266    1.9555 H   0  0  0  0  0  0  0  0  0  0  0  0
  1  2  2  0
  2  3  1  0
  3  4  1  0
  4  5  2  0
  5  6  1  0
  6  7  1  0
  7  8  1  0
  8  9  1  0
  8  3  1  0
  9  3  1  0
  9  6  1  0
  2 10  1  0
  4 11  1  0
  5 12  1  0
  6 13  1  0
  8 14  1  0
  9 15  1  0
M  END
