
     RDKit          3D

 17 18  0  0  0  0  0  0  0  0999 V2000
    2.4132   -1.9368   -0.7578 O   0  0  0  0  0  0  0  0  0  0  0  0
    2.1761   -0.8176   -0.3515 C   0  0  0  0  0  0  0  0  0  0  0  0
    0.8366   -0.4495    0.0210 C   0  0  0  0  0  0  0  0  0  0  0  0
    0.2435    0.6621   -0.8698 C   0  0  0  0  0  0  0  0  0  0  0  0
   -1.0703    0.6597   -0.0619 C   0  0  0  0  0  0  0  0  0  0  0  0
   -1.3734   -0.8183   -0.2146 C   0  0  0  0  0  0  0  0  0  0  0  0
   -0.1084   -1.4316   -0.1175 O   0  0  0  0  0  0  0  0  0  0  0  0
   -0.4924    0.8301    1.3132 C   0  0  0  0  0  0  0  0  0  0  0  0
    0.7523    0.1962    1.2742 O   0  0  0  0  0  0  0  0  0  0  0  0
    3.0025   -0.1303   -0.2859 H   0  0  0  0  0  0  0  0  0  0  0  0
    0.0824    0.3094   -1.8930 H   0  0  0  0  0  0  0  0  0  0  0  0
    0.7823    1.5986   -0.7638 H   0  0  0  0  0  0  0  0  0  0  0  0
   -1.8029    1.3442   -0.3940 H   0  0  0  0  0  0  0  0  0  0  0  0
   -2.0111   -1.1006    0.6430 H   0  0  0  0  0  0  0  0  0  0  0  0
   -1.8874   -1.0639   -1.1482 H   0  0  0  0  0  0  0  0  0  0  0  0
   -0.4130    1.8971    1.5913 H   0  0  0  0  0  0  0  0  0  0  0  0
   -1.1299    0.2513    2.0153 H   0  0  0  0  0  0  0  0  0  0  0  0
  1  2  2  0
  2  3  1  0
  3  4  1  0
  4  5  1  0
  5  6  1  0
  6  7  1  0
  5  8  1  0
  8  9  1  0
  7  3  1  0
  9  3  1  0
  2 10  1  0
  4 11  1  0
  4 12  1  0
  5 13  1  0
  6 14  1  0
  6 15  1  0
  8 16  1  0
  8 17  1  0
M  END
