
     RDKit          3D

 19 20  0  0  0  0  0  0  0  0999 V2000
    2.8936    1.6716    0.8927 O   0  0  0  0  0  0  0  0  0  0  0  0
    2.4948    0.5996    0.3792 C   0  0  0  0  0  0  0  0  0  0  0  0
    1.0641    0.3560    0.3150 C   0  0  0  0  0  0  0  0  0  0  0  0
    0.1665    1.2063    0.7697 C   0  0  0  0  0  0  0  0  0  0  0  0
   -1.2434    1.0954    0.3002 C   0  0  0  0  0  0  0  0  0  0  0  0
   -1.4328   -0.2799   -0.3016 C   0  0  0  0  0  0  0  0  0  0  0  0
   -0.3981   -0.5339   -1.4077 C   0  0  0  0  0  0  0  0  0  0  0  0
    0.5634   -0.9033   -0.2869 C   0  0  0  0  0  0  0  0  0  0  0  0
   -0.6683   -1.3435    0.4987 C   0  0  0  0  0  0  0  0  0  0  0  0
    3.2041   -0.0904    0.0110 H   0  0  0  0  0  0  0  0  0  0  0  0
    0.3861    1.9970    1.4757 H   0  0  0  0  0  0  0  0  0  0  0  0
   -1.3836    1.8373   -0.4897 H   0  0  0  0  0  0  0  0  0  0  0  0
   -1.9242    1.1801    1.1498 H   0  0  0  0  0  0  0  0  0  0  0  0
   -2.4481   -0.5618   -0.5735 H   0  0  0  0  0  0  0  0  0  0  0  0
   -0.7463   -1.4199   -1.9868 H   0  0  0  0  0  0  0  0  0  0  0  0
   -0.1361    0.3501   -1.9881 H   0  0  0  0  0  0  0  0  0  0  0  0
    1.2904   -1.6746   -0.5088 H   0  0  0  0  0  0  0  0  0  0  0  0
   -0.6374   -1.1499    1.5709 H   0  0  0  0  0  0  0  0  0  0  0  0
   -1.0448   -2.3363    0.1804 H   0  0  0  0  0  0  0  0  0  0  0  0
  1  2  2  0
  2  3  1  0
  3  4  2  0
  4  5  1  0
  5  6  1  0
  6  7  1  0
  7  8  1  0
  8  9  1  0
  8  3  1  0
  9  6  1  0
  2 10  1  0
  4 11  1  0
  5 12  1  0
  5 13  1  0
  6 14  1  0
  7 15  1  0
  7 16  1  0
  8 17  1  0
  9 18  1  0
  9 19  1  0
M  END
