
     RDKit          3D

 17 18  0  0  0  0  0  0  0  0999 V2000
    2.3151   -1.2927    1.3974 O   0  0  0  0  0  0  0  0  0  0  0  0
    2.0217   -0.5661    0.4503 C   0  0  0  0  0  0  0  0  0  0  0  0
    0.6133   -0.1710    0.3153 C   0  0  0  0  0  0  0  0  0  0  0  0
    0.0421   -0.4277   -1.0884 C   0  0  0  0  0  0  0  0  0  0  0  0
   -0.8136    0.8187   -0.8163 C   0  0  0  0  0  0  0  0  0  0  0  0
    0.3618    1.3060    0.0415 C   0  0  0  0  0  0  0  0  0  0  0  0
   -1.8662    0.4134   -0.0371 O   0  0  0  0  0  0  0  0  0  0  0  0
   -1.5793   -0.5938    0.8384 C   0  0  0  0  0  0  0  0  0  0  0  0
   -0.2589   -0.6447    1.2561 O   0  0  0  0  0  0  0  0  0  0  0  0
    2.8144   -0.2691   -0.2145 H   0  0  0  0  0  0  0  0  0  0  0  0
    0.8120   -0.2260   -1.8653 H   0  0  0  0  0  0  0  0  0  0  0  0
   -0.5176   -1.3558   -1.1932 H   0  0  0  0  0  0  0  0  0  0  0  0
   -1.0493    1.4222   -1.6795 H   0  0  0  0  0  0  0  0  0  0  0  0
    1.1658    1.7112   -0.5697 H   0  0  0  0  0  0  0  0  0  0  0  0
    0.0542    1.8841    0.9339 H   0  0  0  0  0  0  0  0  0  0  0  0
   -1.9248   -1.5852    0.4582 H   0  0  0  0  0  0  0  0  0  0  0  0
   -2.1908   -0.4235    1.7729 H   0  0  0  0  0  0  0  0  0  0  0  0
  1  2  2  0
  2  3  1  0
  3  4  1  0
  4  5  1  0
  5  6  1  0
  5  7  1  0
  7  8  1  0
  8  9  1  0
  6  3  1  0
  9  3  1  0
  2 10  1  0
  4 11  1  0
  4 12  1  0
  5 13  1  0
  6 14  1  0
  6 15  1  0
  8 16  1  0
  8 17  1  0
M  END
