
     RDKit          3D

 15 16  0  0  0  0  0  0  0  0999 V2000
    2.3375   -0.5326   -0.5623 O   0  0  0  0  0  0  0  0  0  0  0  0
    1.7614    0.2068    0.2456 C   0  0  0  0  0  0  0  0  0  0  0  0
    0.3762    0.2633    0.4026 C   0  0  0  0  0  0  0  0  0  0  0  0
   -0.2092   -1.0695    0.6525 C   0  0  0  0  0  0  0  0  0  0  0  0
   -1.1574   -0.8620   -0.5115 C   0  0  0  0  0  0  0  0  0  0  0  0
   -0.9540    0.5393    0.0269 C   0  0  0  0  0  0  0  0  0  0  0  0
   -0.0414    1.3862   -0.4944 C   0  0  0  0  0  0  0  0  0  0  0  0
    2.4526    0.8270    0.8397 H   0  0  0  0  0  0  0  0  0  0  0  0
   -0.8161   -1.0956    1.5958 H   0  0  0  0  0  0  0  0  0  0  0  0
    0.3737   -1.9700    0.4988 H   0  0  0  0  0  0  0  0  0  0  0  0
   -2.1691   -1.2744   -0.3815 H   0  0  0  0  0  0  0  0  0  0  0  0
   -0.6922   -0.9760   -1.5001 H   0  0  0  0  0  0  0  0  0  0  0  0
   -1.6762    0.7946    0.8447 H   0  0  0  0  0  0  0  0  0  0  0  0
    0.2058    2.3964   -0.0648 H   0  0  0  0  0  0  0  0  0  0  0  0
    0.2083    1.3664   -1.5920 H   0  0  0  0  0  0  0  0  0  0  0  0
  1  2  2  0
  2  3  1  0
  3  4  1  0
  4  5  1  0
  5  6  1  0
  6  7  1  0
  6  3  1  0
  7  3  1  0
  2  8  1  0
  4  9  1  0
  4 10  1  0
  5 11  1  0
  5 12  1  0
  6 13  1  0
  7 14  1  0
  7 15  1  0
M  END
