
     RDKit          3D

 16 16  0  0  0  0  0  0  0  0999 V2000
    1.8253    2.0743   -1.0253 O   0  0  0  0  0  0  0  0  0  0  0  0
    2.0385    0.9906   -0.5271 C   0  0  0  0  0  0  0  0  0  0  0  0
    0.9590    0.3260    0.2274 C   0  0  0  0  0  0  0  0  0  0  0  0
    1.4173   -0.9050    0.7132 O   0  0  0  0  0  0  0  0  0  0  0  0
    0.2625   -1.5134    0.2505 C   0  0  0  0  0  0  0  0  0  0  0  0
   -0.1322   -0.3082   -0.5607 C   0  0  0  0  0  0  0  0  0  0  0  0
   -1.5399    0.0887   -0.2129 C   0  0  0  0  0  0  0  0  0  0  0  0
   -1.7597    1.4560   -0.3744 O   0  0  0  0  0  0  0  0  0  0  0  0
    3.0176    0.5661   -0.6643 H   0  0  0  0  0  0  0  0  0  0  0  0
    0.5469    0.9056    1.0754 H   0  0  0  0  0  0  0  0  0  0  0  0
    0.3763   -2.3924   -0.3780 H   0  0  0  0  0  0  0  0  0  0  0  0
   -0.3946   -1.7201    1.1347 H   0  0  0  0  0  0  0  0  0  0  0  0
    0.0323   -0.3928   -1.6524 H   0  0  0  0  0  0  0  0  0  0  0  0
   -1.7302   -0.1772    0.8555 H   0  0  0  0  0  0  0  0  0  0  0  0
   -2.2464   -0.5325   -0.8015 H   0  0  0  0  0  0  0  0  0  0  0  0
   -2.6728    1.5345   -0.7842 H   0  0  0  0  0  0  0  0  0  0  0  0
  1  2  2  0
  2  3  1  0
  3  4  1  0
  4  5  1  0
  5  6  1  0
  6  7  1  0
  7  8  1  0
  6  3  1  0
  2  9  1  0
  3 10  1  0
  5 11  1  0
  5 12  1  0
  6 13  1  0
  7 14  1  0
  7 15  1  0
  8 16  1  0
M  END
