
     RDKit          3D

 17 17  0  0  0  0  0  0  0  0999 V2000
   -2.5944    0.2321    1.8125 O   0  0  0  0  0  0  0  0  0  0  0  0
   -2.9654    0.5095    0.6912 C   0  0  0  0  0  0  0  0  0  0  0  0
   -2.0605    0.2846   -0.4722 C   0  0  0  0  0  0  0  0  0  0  0  0
   -0.7606   -0.3050   -0.0438 C   0  0  0  0  0  0  0  0  0  0  0  0
   -0.8045   -1.3369    0.5963 O   0  0  0  0  0  0  0  0  0  0  0  0
    0.5497    0.2980   -0.3523 C   0  0  0  0  0  0  0  0  0  0  0  0
    1.6474   -0.5576    0.1904 C   0  0  0  0  0  0  0  0  0  0  0  0
    3.0918   -0.1857    0.0288 C   0  0  0  0  0  0  0  0  0  0  0  0
    2.5430   -1.1470   -0.7767 O   0  0  0  0  0  0  0  0  0  0  0  0
   -3.9484    0.9186    0.5394 H   0  0  0  0  0  0  0  0  0  0  0  0
   -2.5437   -0.5304   -1.0937 H   0  0  0  0  0  0  0  0  0  0  0  0
   -1.9540    1.1549   -1.1325 H   0  0  0  0  0  0  0  0  0  0  0  0
    0.6949    0.3641   -1.4737 H   0  0  0  0  0  0  0  0  0  0  0  0
    0.6455    1.3051    0.1109 H   0  0  0  0  0  0  0  0  0  0  0  0
    1.3712   -1.3344    0.9262 H   0  0  0  0  0  0  0  0  0  0  0  0
    3.3504    0.7806   -0.4274 H   0  0  0  0  0  0  0  0  0  0  0  0
    3.7378   -0.4506    0.8764 H   0  0  0  0  0  0  0  0  0  0  0  0
  1  2  2  0
  2  3  1  0
  3  4  1  0
  4  5  2  0
  4  6  1  0
  6  7  1  0
  7  8  1  0
  8  9  1  0
  9  7  1  0
  2 10  1  0
  3 11  1  0
  3 12  1  0
  6 13  1  0
  6 14  1  0
  7 15  1  0
  8 16  1  0
  8 17  1  0
M  END
