
     RDKit          3D

 21 20  0  0  0  0  0  0  0  0999 V2000
    3.9913   -0.2109    0.2426 O   0  0  0  0  0  0  0  0  0  0  0  0
    3.2698    0.7302   -0.0826 C   0  0  0  0  0  0  0  0  0  0  0  0
    1.8047    0.7052   -0.0169 C   0  0  0  0  0  0  0  0  0  0  0  0
    1.2682   -0.6179    0.5000 C   0  0  0  0  0  0  0  0  0  0  0  0
   -0.2288   -0.6305    0.5623 C   0  0  0  0  0  0  0  0  0  0  0  0
   -0.8738   -0.4066   -0.7853 C   0  0  0  0  0  0  0  0  0  0  0  0
   -2.3776   -0.4356   -0.6274 C   0  0  0  0  0  0  0  0  0  0  0  0
   -2.8103    0.6291    0.3015 C   0  0  0  0  0  0  0  0  0  0  0  0
   -3.9916    0.7908    0.5884 O   0  0  0  0  0  0  0  0  0  0  0  0
    3.7766    1.6201   -0.4359 H   0  0  0  0  0  0  0  0  0  0  0  0
    1.4120    0.9398   -1.0238 H   0  0  0  0  0  0  0  0  0  0  0  0
    1.4394    1.5022    0.6735 H   0  0  0  0  0  0  0  0  0  0  0  0
    1.6523   -0.7213    1.5354 H   0  0  0  0  0  0  0  0  0  0  0  0
    1.6801   -1.4654   -0.0714 H   0  0  0  0  0  0  0  0  0  0  0  0
   -0.5676   -1.6175    0.9373 H   0  0  0  0  0  0  0  0  0  0  0  0
   -0.5487    0.1400    1.2819 H   0  0  0  0  0  0  0  0  0  0  0  0
   -0.6055    0.6348   -1.1026 H   0  0  0  0  0  0  0  0  0  0  0  0
   -0.5894   -1.1695   -1.5212 H   0  0  0  0  0  0  0  0  0  0  0  0
   -2.6621   -1.4281   -0.1705 H   0  0  0  0  0  0  0  0  0  0  0  0
   -2.9150   -0.3142   -1.5672 H   0  0  0  0  0  0  0  0  0  0  0  0
   -2.1240    1.3251    0.7819 H   0  0  0  0  0  0  0  0  0  0  0  0
  1  2  2  0
  2  3  1  0
  3  4  1  0
  4  5  1  0
  5  6  1  0
  6  7  1  0
  7  8  1  0
  8  9  2  0
  2 10  1  0
  3 11  1  0
  3 12  1  0
  4 13  1  0
  4 14  1  0
  5 15  1  0
  5 16  1  0
  6 17  1  0
  6 18  1  0
  7 19  1  0
  7 20  1  0
  8 21  1  0
M  END
