
     RDKit          3D

 17 19  0  0  0  0  0  0  0  0999 V2000
   -1.9789    1.4762   -0.8396 O   0  0  0  0  0  0  0  0  0  0  0  0
   -1.8745    0.6293    0.0330 C   0  0  0  0  0  0  0  0  0  0  0  0
   -0.6186    0.5045    0.8184 C   0  0  0  0  0  0  0  0  0  0  0  0
   -0.2834   -0.9569    0.9112 C   0  0  0  0  0  0  0  0  0  0  0  0
    0.4560   -1.2401   -0.3811 C   0  0  0  0  0  0  0  0  0  0  0  0
    1.8242   -1.1048   -0.1463 O   0  0  0  0  0  0  0  0  0  0  0  0
    1.7510    0.2554   -0.2402 C   0  0  0  0  0  0  0  0  0  0  0  0
    0.5178    1.0418   -0.0350 C   0  0  0  0  0  0  0  0  0  0  0  0
    0.5459    0.0733   -1.1076 C   0  0  0  0  0  0  0  0  0  0  0  0
   -2.7462   -0.0013    0.1802 H   0  0  0  0  0  0  0  0  0  0  0  0
   -0.6785    1.0038    1.7983 H   0  0  0  0  0  0  0  0  0  0  0  0
   -1.1980   -1.5747    1.0223 H   0  0  0  0  0  0  0  0  0  0  0  0
    0.3737   -1.0850    1.8004 H   0  0  0  0  0  0  0  0  0  0  0  0
    0.1357   -2.1090   -0.9439 H   0  0  0  0  0  0  0  0  0  0  0  0
    2.6420    0.7710   -0.5831 H   0  0  0  0  0  0  0  0  0  0  0  0
    0.6053    2.1224   -0.1290 H   0  0  0  0  0  0  0  0  0  0  0  0
    0.5264    0.1940   -2.1581 H   0  0  0  0  0  0  0  0  0  0  0  0
  1  2  2  0
  2  3  1  0
  3  4  1  0
  4  5  1  0
  5  6  1  0
  6  7  1  0
  7  8  1  0
  8  9  1  0
  8  3  1  0
  9  5  1  0
  9  7  1  0
  2 10  1  0
  3 11  1  0
  4 12  1  0
  4 13  1  0
  5 14  1  0
  7 15  1  0
  8 16  1  0
  9 17  1  0
M  END
