
     RDKit          3D

 14 14  0  0  0  0  0  0  0  0999 V2000
    2.9147    1.3388   -0.8891 O   0  0  0  0  0  0  0  0  0  0  0  0
    2.8967    0.6504    0.1494 C   0  0  0  0  0  0  0  0  0  0  0  0
    1.6312    0.0804    0.6275 C   0  0  0  0  0  0  0  0  0  0  0  0
    1.5682   -0.6201    1.6705 O   0  0  0  0  0  0  0  0  0  0  0  0
    0.4734    0.3020   -0.0617 O   0  0  0  0  0  0  0  0  0  0  0  0
   -0.7924   -0.1850    0.2904 C   0  0  0  0  0  0  0  0  0  0  0  0
   -1.5361   -0.7984   -0.9080 C   0  0  0  0  0  0  0  0  0  0  0  0
   -2.0500    0.3856   -0.1558 C   0  0  0  0  0  0  0  0  0  0  0  0
    3.8274    0.4912    0.6747 H   0  0  0  0  0  0  0  0  0  0  0  0
   -0.7733   -0.8015    1.2312 H   0  0  0  0  0  0  0  0  0  0  0  0
   -1.1709   -0.5937   -1.9158 H   0  0  0  0  0  0  0  0  0  0  0  0
   -1.9650   -1.7900   -0.7145 H   0  0  0  0  0  0  0  0  0  0  0  0
   -2.0729    1.3709   -0.6373 H   0  0  0  0  0  0  0  0  0  0  0  0
   -2.9511    0.1693    0.4657 H   0  0  0  0  0  0  0  0  0  0  0  0
  1  2  2  0
  2  3  1  0
  3  4  2  0
  3  5  1  0
  5  6  1  0
  6  7  1  0
  7  8  1  0
  8  6  1  0
  2  9  1  0
  6 10  1  0
  7 11  1  0
  7 12  1  0
  8 13  1  0
  8 14  1  0
M  END
