
     RDKit          3D

 19 19  0  0  0  0  0  0  0  0999 V2000
    2.9003   -0.6801    0.7774 O   0  0  0  0  0  0  0  0  0  0  0  0
    3.0324   -0.3983   -0.3809 C   0  0  0  0  0  0  0  0  0  0  0  0
    1.9910    0.2708   -1.1724 C   0  0  0  0  0  0  0  0  0  0  0  0
    0.8554    0.4912   -0.4567 O   0  0  0  0  0  0  0  0  0  0  0  0
    0.1775   -0.5935    0.0210 C   0  0  0  0  0  0  0  0  0  0  0  0
   -1.0360   -0.0254    0.7700 C   0  0  0  0  0  0  0  0  0  0  0  0
   -0.6737    0.8028    1.8196 O   0  0  0  0  0  0  0  0  0  0  0  0
   -2.3196   -0.7048    0.7812 C   0  0  0  0  0  0  0  0  0  0  0  0
   -2.1313    0.4384   -0.1669 C   0  0  0  0  0  0  0  0  0  0  0  0
    3.9639   -0.6389   -0.9019 H   0  0  0  0  0  0  0  0  0  0  0  0
    2.3806    1.2964   -1.4539 H   0  0  0  0  0  0  0  0  0  0  0  0
    1.7388   -0.2715   -2.1106 H   0  0  0  0  0  0  0  0  0  0  0  0
    0.7234   -1.3080    0.6313 H   0  0  0  0  0  0  0  0  0  0  0  0
   -0.2540   -1.1618   -0.8302 H   0  0  0  0  0  0  0  0  0  0  0  0
   -1.2514    1.5958    1.9166 H   0  0  0  0  0  0  0  0  0  0  0  0
   -2.9912   -0.5125    1.6389 H   0  0  0  0  0  0  0  0  0  0  0  0
   -2.4064   -1.7374    0.3633 H   0  0  0  0  0  0  0  0  0  0  0  0
   -2.0864    0.1387   -1.2375 H   0  0  0  0  0  0  0  0  0  0  0  0
   -2.6135    1.4071   -0.0080 H   0  0  0  0  0  0  0  0  0  0  0  0
  1  2  2  0
  2  3  1  0
  3  4  1  0
  4  5  1  0
  5  6  1  0
  6  7  1  0
  6  8  1  0
  8  9  1  0
  9  6  1  0
  2 10  1  0
  3 11  1  0
  3 12  1  0
  5 13  1  0
  5 14  1  0
  7 15  1  0
  8 16  1  0
  8 17  1  0
  9 18  1  0
  9 19  1  0
M  END
