
     RDKit          3D

 15 15  0  0  0  0  0  0  0  0999 V2000
    2.9676    1.0641   -0.3585 O   0  0  0  0  0  0  0  0  0  0  0  0
    2.4769    0.4756    0.6547 C   0  0  0  0  0  0  0  0  0  0  0  0
    1.0976    0.0060    0.5732 C   0  0  0  0  0  0  0  0  0  0  0  0
    0.6855   -0.5684    1.6225 O   0  0  0  0  0  0  0  0  0  0  0  0
    0.2896    0.1994   -0.6334 C   0  0  0  0  0  0  0  0  0  0  0  0
   -0.5039   -0.9451   -1.1812 C   0  0  0  0  0  0  0  0  0  0  0  0
   -1.1595    0.3699   -0.6843 C   0  0  0  0  0  0  0  0  0  0  0  0
   -2.0998    0.1493    0.4041 C   0  0  0  0  0  0  0  0  0  0  0  0
   -1.9157   -0.5276    1.4023 O   0  0  0  0  0  0  0  0  0  0  0  0
    3.1034    0.3611    1.5025 H   0  0  0  0  0  0  0  0  0  0  0  0
    0.8625    0.7325   -1.4551 H   0  0  0  0  0  0  0  0  0  0  0  0
   -0.5644   -1.8263   -0.5323 H   0  0  0  0  0  0  0  0  0  0  0  0
   -0.5881   -1.1340   -2.2476 H   0  0  0  0  0  0  0  0  0  0  0  0
   -1.5610    1.0315   -1.5100 H   0  0  0  0  0  0  0  0  0  0  0  0
   -3.0907    0.6120    0.3820 H   0  0  0  0  0  0  0  0  0  0  0  0
  1  2  2  0
  2  3  1  0
  3  4  2  0
  3  5  1  0
  5  6  1  0
  6  7  1  0
  7  8  1  0
  8  9  2  0
  7  5  1  0
  2 10  1  0
  5 11  1  0
  6 12  1  0
  6 13  1  0
  7 14  1  0
  8 15  1  0
M  END
