
     RDKit          3D

 15 16  0  0  0  0  0  0  0  0999 V2000
    2.2647   -0.2116   -1.1420 O   0  0  0  0  0  0  0  0  0  0  0  0
    1.8792   -0.3597   -0.0089 C   0  0  0  0  0  0  0  0  0  0  0  0
    0.4927   -0.0116    0.3535 C   0  0  0  0  0  0  0  0  0  0  0  0
    0.1439   -0.2138    1.6664 O   0  0  0  0  0  0  0  0  0  0  0  0
   -0.5605   -0.5169   -0.6597 C   0  0  0  0  0  0  0  0  0  0  0  0
   -0.9929   -1.7565   -0.2796 O   0  0  0  0  0  0  0  0  0  0  0  0
   -1.3470    0.6283   -0.0828 C   0  0  0  0  0  0  0  0  0  0  0  0
   -1.0955    1.9242   -0.1257 O   0  0  0  0  0  0  0  0  0  0  0  0
    0.0501    1.2979   -0.2579 C   0  0  0  0  0  0  0  0  0  0  0  0
    2.5451   -0.7446    0.7355 H   0  0  0  0  0  0  0  0  0  0  0  0
    0.0110    0.5962    2.1908 H   0  0  0  0  0  0  0  0  0  0  0  0
   -0.1687   -0.3946   -1.6681 H   0  0  0  0  0  0  0  0  0  0  0  0
   -1.9730   -1.8546   -0.3545 H   0  0  0  0  0  0  0  0  0  0  0  0
   -1.6283    0.3446    0.9822 H   0  0  0  0  0  0  0  0  0  0  0  0
    0.3792    1.2728   -1.3492 H   0  0  0  0  0  0  0  0  0  0  0  0
  1  2  2  0
  2  3  1  0
  3  4  1  0
  3  5  1  0
  5  6  1  0
  5  7  1  0
  7  8  1  0
  8  9  1  0
  9  3  1  0
  9  7  1  0
  2 10  1  0
  4 11  1  0
  5 12  1  0
  6 13  1  0
  7 14  1  0
  9 15  1  0
M  END
