
     RDKit          3D

 14 15  0  0  0  0  0  0  0  0999 V2000
    2.3915    0.8802    0.8554 O   0  0  0  0  0  0  0  0  0  0  0  0
    1.9898   -0.1672    0.3802 C   0  0  0  0  0  0  0  0  0  0  0  0
    0.6215   -0.2309   -0.1417 C   0  0  0  0  0  0  0  0  0  0  0  0
   -0.0013    1.0651   -0.6625 C   0  0  0  0  0  0  0  0  0  0  0  0
   -1.1972    1.1786   -0.0026 O   0  0  0  0  0  0  0  0  0  0  0  0
   -1.7078   -0.1296    0.1053 C   0  0  0  0  0  0  0  0  0  0  0  0
   -0.4774   -0.9341    0.4660 C   0  0  0  0  0  0  0  0  0  0  0  0
    0.1853   -1.4297   -0.6770 O   0  0  0  0  0  0  0  0  0  0  0  0
    2.6848   -0.9986    0.3749 H   0  0  0  0  0  0  0  0  0  0  0  0
    0.6692    1.8913   -0.3715 H   0  0  0  0  0  0  0  0  0  0  0  0
   -0.1355    0.9563   -1.7496 H   0  0  0  0  0  0  0  0  0  0  0  0
   -2.5047   -0.2107    0.8435 H   0  0  0  0  0  0  0  0  0  0  0  0
   -2.0983   -0.3921   -0.8852 H   0  0  0  0  0  0  0  0  0  0  0  0
   -0.4196   -1.4785    1.4035 H   0  0  0  0  0  0  0  0  0  0  0  0
  1  2  2  0
  2  3  1  0
  3  4  1  0
  4  5  1  0
  5  6  1  0
  6  7  1  0
  7  8  1  0
  7  3  1  0
  8  3  1  0
  2  9  1  0
  4 10  1  0
  4 11  1  0
  6 12  1  0
  6 13  1  0
  7 14  1  0
M  END
