
     RDKit          3D

 17 17  0  0  0  0  0  0  0  0999 V2000
    3.1087   -0.0919   -0.7030 O   0  0  0  0  0  0  0  0  0  0  0  0
    1.8973    0.1195   -0.8006 C   0  0  0  0  0  0  0  0  0  0  0  0
    1.0675    0.3675    0.3840 C   0  0  0  0  0  0  0  0  0  0  0  0
    0.0280    1.4092    0.1735 C   0  0  0  0  0  0  0  0  0  0  0  0
   -1.2218    1.1537   -0.1629 C   0  0  0  0  0  0  0  0  0  0  0  0
   -1.7564   -0.2156   -0.3763 C   0  0  0  0  0  0  0  0  0  0  0  0
   -0.8034   -1.2536    0.0993 C   0  0  0  0  0  0  0  0  0  0  0  0
   -1.0966   -2.4192   -0.1234 O   0  0  0  0  0  0  0  0  0  0  0  0
    0.4397   -0.9389    0.8053 C   0  0  0  0  0  0  0  0  0  0  0  0
    1.4873    0.1119   -1.7933 H   0  0  0  0  0  0  0  0  0  0  0  0
    1.7509    0.6636    1.2160 H   0  0  0  0  0  0  0  0  0  0  0  0
    0.3094    2.4495    0.3034 H   0  0  0  0  0  0  0  0  0  0  0  0
   -1.9278    1.9737   -0.2996 H   0  0  0  0  0  0  0  0  0  0  0  0
   -2.7199   -0.3220    0.1974 H   0  0  0  0  0  0  0  0  0  0  0  0
   -1.9818   -0.3600   -1.4587 H   0  0  0  0  0  0  0  0  0  0  0  0
    0.2576   -0.8960    1.9121 H   0  0  0  0  0  0  0  0  0  0  0  0
    1.1612   -1.7514    0.6268 H   0  0  0  0  0  0  0  0  0  0  0  0
  1  2  2  0
  2  3  1  0
  3  4  1  0
  4  5  2  0
  5  6  1  0
  6  7  1  0
  7  8  2  0
  7  9  1  0
  9  3  1  0
  2 10  1  0
  3 11  1  0
  4 12  1  0
  5 13  1  0
  6 14  1  0
  6 15  1  0
  9 16  1  0
  9 17  1  0
M  END
