
     RDKit          3D

 17 18  0  0  0  0  0  0  0  0999 V2000
    2.8615   -0.1716   -0.7204 O   0  0  0  0  0  0  0  0  0  0  0  0
    1.9639    0.6224   -0.5212 C   0  0  0  0  0  0  0  0  0  0  0  0
    0.6469    0.1825   -0.2273 C   0  0  0  0  0  0  0  0  0  0  0  0
   -0.5307    1.0782   -0.4304 C   0  0  0  0  0  0  0  0  0  0  0  0
   -1.6354    0.1308    0.0849 C   0  0  0  0  0  0  0  0  0  0  0  0
   -0.7835   -1.0665    0.3894 C   0  0  0  0  0  0  0  0  0  0  0  0
    0.3689   -0.4059    1.1637 C   0  0  0  0  0  0  0  0  0  0  0  0
    0.1881   -1.1453   -0.7357 C   0  0  0  0  0  0  0  0  0  0  0  0
    0.4042   -1.9569   -1.5907 O   0  0  0  0  0  0  0  0  0  0  0  0
    2.2129    1.6699   -0.5777 H   0  0  0  0  0  0  0  0  0  0  0  0
   -0.7126    1.2687   -1.5084 H   0  0  0  0  0  0  0  0  0  0  0  0
   -0.5117    2.0004    0.1596 H   0  0  0  0  0  0  0  0  0  0  0  0
   -2.0220    0.5455    1.0475 H   0  0  0  0  0  0  0  0  0  0  0  0
   -2.4023   -0.0328   -0.6703 H   0  0  0  0  0  0  0  0  0  0  0  0
   -1.2026   -1.9484    0.7872 H   0  0  0  0  0  0  0  0  0  0  0  0
    1.0932   -1.1492    1.4950 H   0  0  0  0  0  0  0  0  0  0  0  0
    0.0612    0.3783    1.8550 H   0  0  0  0  0  0  0  0  0  0  0  0
  1  2  2  0
  2  3  1  0
  3  4  1  0
  4  5  1  0
  5  6  1  0
  6  7  1  0
  6  8  1  0
  8  9  2  0
  7  3  1  0
  8  3  1  0
  2 10  1  0
  4 11  1  0
  4 12  1  0
  5 13  1  0
  5 14  1  0
  6 15  1  0
  7 16  1  0
  7 17  1  0
M  END
