
     RDKit          3D

 18 18  0  0  0  0  0  0  0  0999 V2000
   -2.1202    1.2508    0.8939 O   0  0  0  0  0  0  0  0  0  0  0  0
   -2.6075    0.2542    0.4017 C   0  0  0  0  0  0  0  0  0  0  0  0
   -1.7235   -0.7886   -0.1699 C   0  0  0  0  0  0  0  0  0  0  0  0
   -0.2915   -0.3601   -0.0096 C   0  0  0  0  0  0  0  0  0  0  0  0
    0.6669   -0.9767    0.6448 C   0  0  0  0  0  0  0  0  0  0  0  0
    1.9437   -0.2589    0.5844 C   0  0  0  0  0  0  0  0  0  0  0  0
    1.7449    0.6586   -0.6026 C   0  0  0  0  0  0  0  0  0  0  0  0
    0.2250    0.8869   -0.6142 C   0  0  0  0  0  0  0  0  0  0  0  0
   -3.6676    0.0992    0.3652 H   0  0  0  0  0  0  0  0  0  0  0  0
   -1.8887   -0.8785   -1.2589 H   0  0  0  0  0  0  0  0  0  0  0  0
   -1.9033   -1.7744    0.2860 H   0  0  0  0  0  0  0  0  0  0  0  0
    0.4516   -1.9406    1.1654 H   0  0  0  0  0  0  0  0  0  0  0  0
    2.7394   -1.0023    0.3174 H   0  0  0  0  0  0  0  0  0  0  0  0
    2.2176    0.2763    1.5049 H   0  0  0  0  0  0  0  0  0  0  0  0
    2.0580    0.1938   -1.5607 H   0  0  0  0  0  0  0  0  0  0  0  0
    2.2690    1.6002   -0.3749 H   0  0  0  0  0  0  0  0  0  0  0  0
   -0.1313    1.0492   -1.6480 H   0  0  0  0  0  0  0  0  0  0  0  0
    0.0174    1.7109    0.0752 H   0  0  0  0  0  0  0  0  0  0  0  0
  1  2  2  0
  2  3  1  0
  3  4  1  0
  4  5  2  0
  5  6  1  0
  6  7  1  0
  7  8  1  0
  8  4  1  0
  2  9  1  0
  3 10  1  0
  3 11  1  0
  5 12  1  0
  6 13  1  0
  6 14  1  0
  7 15  1  0
  7 16  1  0
  8 17  1  0
  8 18  1  0
M  END
