
     RDKit          3D

 19 19  0  0  0  0  0  0  0  0999 V2000
    3.3179    0.5274   -1.0064 O   0  0  0  0  0  0  0  0  0  0  0  0
    2.6646   -0.2836   -0.3276 C   0  0  0  0  0  0  0  0  0  0  0  0
    1.3161    0.0520    0.0554 C   0  0  0  0  0  0  0  0  0  0  0  0
    0.7396    1.1986   -0.2890 C   0  0  0  0  0  0  0  0  0  0  0  0
   -0.6571    1.3920    0.1859 C   0  0  0  0  0  0  0  0  0  0  0  0
   -1.5013    0.2069   -0.2164 C   0  0  0  0  0  0  0  0  0  0  0  0
   -2.6823    0.1648    0.5454 O   0  0  0  0  0  0  0  0  0  0  0  0
   -0.7759   -1.1023   -0.0087 C   0  0  0  0  0  0  0  0  0  0  0  0
    0.4487   -0.8640    0.8743 C   0  0  0  0  0  0  0  0  0  0  0  0
    3.1064   -1.2094   -0.0397 H   0  0  0  0  0  0  0  0  0  0  0  0
    1.2778    1.9325   -0.8816 H   0  0  0  0  0  0  0  0  0  0  0  0
   -0.6930    1.5275    1.3070 H   0  0  0  0  0  0  0  0  0  0  0  0
   -1.0172    2.3289   -0.3139 H   0  0  0  0  0  0  0  0  0  0  0  0
   -1.8104    0.3200   -1.2926 H   0  0  0  0  0  0  0  0  0  0  0  0
   -2.9465   -0.7757    0.6251 H   0  0  0  0  0  0  0  0  0  0  0  0
   -1.4347   -1.8850    0.4119 H   0  0  0  0  0  0  0  0  0  0  0  0
   -0.4519   -1.4597   -1.0241 H   0  0  0  0  0  0  0  0  0  0  0  0
    0.1296   -0.2835    1.7585 H   0  0  0  0  0  0  0  0  0  0  0  0
    0.9695   -1.7873    1.1158 H   0  0  0  0  0  0  0  0  0  0  0  0
  1  2  2  0
  2  3  1  0
  3  4  2  0
  4  5  1  0
  5  6  1  0
  6  7  1  0
  6  8  1  0
  8  9  1  0
  9  3  1  0
  2 10  1  0
  4 11  1  0
  5 12  1  0
  5 13  1  0
  6 14  1  0
  7 15  1  0
  8 16  1  0
  8 17  1  0
  9 18  1  0
  9 19  1  0
M  END
