
     RDKit          3D

 17 18  0  0  0  0  0  0  0  0999 V2000
   -1.8675   -2.1796   -0.4089 O   0  0  0  0  0  0  0  0  0  0  0  0
   -2.2787   -1.0826   -0.1299 C   0  0  0  0  0  0  0  0  0  0  0  0
   -1.5226    0.1164   -0.5467 C   0  0  0  0  0  0  0  0  0  0  0  0
   -0.3639   -0.1997   -1.2500 O   0  0  0  0  0  0  0  0  0  0  0  0
    0.5492    0.3800   -0.3725 C   0  0  0  0  0  0  0  0  0  0  0  0
    1.6561   -0.4664    0.1918 C   0  0  0  0  0  0  0  0  0  0  0  0
    2.4756   -0.9963   -0.7810 O   0  0  0  0  0  0  0  0  0  0  0  0
    0.3495    1.7285    0.1574 C   0  0  0  0  0  0  0  0  0  0  0  0
   -0.6413    0.6971    0.5299 C   0  0  0  0  0  0  0  0  0  0  0  0
   -3.1960   -0.9371    0.4237 H   0  0  0  0  0  0  0  0  0  0  0  0
   -2.1028    0.8813   -1.1015 H   0  0  0  0  0  0  0  0  0  0  0  0
    2.2837    0.1963    0.8224 H   0  0  0  0  0  0  0  0  0  0  0  0
    1.2424   -1.2350    0.8789 H   0  0  0  0  0  0  0  0  0  0  0  0
    2.9878   -1.7502   -0.3461 H   0  0  0  0  0  0  0  0  0  0  0  0
    1.0273    2.0579    0.9561 H   0  0  0  0  0  0  0  0  0  0  0  0
    0.0803    2.5471   -0.5452 H   0  0  0  0  0  0  0  0  0  0  0  0
   -0.6790    0.2424    1.5216 H   0  0  0  0  0  0  0  0  0  0  0  0
  1  2  2  0
  2  3  1  0
  3  4  1  0
  4  5  1  0
  5  6  1  0
  6  7  1  0
  5  8  1  0
  8  9  1  0
  9  3  1  0
  9  5  1  0
  2 10  1  0
  3 11  1  0
  6 12  1  0
  6 13  1  0
  7 14  1  0
  8 15  1  0
  8 16  1  0
  9 17  1  0
M  END
