
     RDKit          3D

 16 16  0  0  0  0  0  0  0  0999 V2000
   -3.0112   -0.6595    0.0200 O   0  0  0  0  0  0  0  0  0  0  0  0
   -1.8080   -0.6492    0.0988 C   0  0  0  0  0  0  0  0  0  0  0  0
   -1.0704    0.5894   -0.1986 C   0  0  0  0  0  0  0  0  0  0  0  0
    0.4048    0.4700   -0.0652 C   0  0  0  0  0  0  0  0  0  0  0  0
    1.0406    1.6659   -0.3576 O   0  0  0  0  0  0  0  0  0  0  0  0
    0.9655   -0.1713    1.1441 C   0  0  0  0  0  0  0  0  0  0  0  0
    2.0334   -0.6095    0.3362 O   0  0  0  0  0  0  0  0  0  0  0  0
    1.0671   -0.7117   -0.6916 C   0  0  0  0  0  0  0  0  0  0  0  0
   -1.2761   -1.5394    0.3848 H   0  0  0  0  0  0  0  0  0  0  0  0
   -1.4053    1.3938    0.5196 H   0  0  0  0  0  0  0  0  0  0  0  0
   -1.3051    0.9138   -1.2387 H   0  0  0  0  0  0  0  0  0  0  0  0
    0.6270    2.0954   -1.1444 H   0  0  0  0  0  0  0  0  0  0  0  0
    1.3114    0.5146    1.9622 H   0  0  0  0  0  0  0  0  0  0  0  0
    0.4503   -1.0608    1.5433 H   0  0  0  0  0  0  0  0  0  0  0  0
    0.5041   -1.6527   -0.6046 H   0  0  0  0  0  0  0  0  0  0  0  0
    1.4719   -0.5887   -1.7082 H   0  0  0  0  0  0  0  0  0  0  0  0
  1  2  2  0
  2  3  1  0
  3  4  1  0
  4  5  1  0
  4  6  1  0
  6  7  1  0
  7  8  1  0
  8  4  1  0
  2  9  1  0
  3 10  1  0
  3 11  1  0
  5 12  1  0
  6 13  1  0
  6 14  1  0
  8 15  1  0
  8 16  1  0
M  END
