
     RDKit          3D

 19 20  0  0  0  0  0  0  0  0999 V2000
    2.1728    0.7193   -1.1807 O   0  0  0  0  0  0  0  0  0  0  0  0
    2.3703   -0.0342   -0.2573 C   0  0  0  0  0  0  0  0  0  0  0  0
    1.2442   -0.7221    0.4052 C   0  0  0  0  0  0  0  0  0  0  0  0
    0.1379   -1.1680   -0.5629 C   0  0  0  0  0  0  0  0  0  0  0  0
   -0.6906   -0.0678   -0.0355 C   0  0  0  0  0  0  0  0  0  0  0  0
   -2.1454   -0.1512    0.1813 C   0  0  0  0  0  0  0  0  0  0  0  0
   -1.4962    0.8529   -0.7887 C   0  0  0  0  0  0  0  0  0  0  0  0
    0.2658    0.2682    1.0464 C   0  0  0  0  0  0  0  0  0  0  0  0
    0.7311    1.5604    1.1212 O   0  0  0  0  0  0  0  0  0  0  0  0
    3.3686   -0.2139    0.0943 H   0  0  0  0  0  0  0  0  0  0  0  0
    1.5157   -1.5617    1.0627 H   0  0  0  0  0  0  0  0  0  0  0  0
    0.4911   -1.1001   -1.6052 H   0  0  0  0  0  0  0  0  0  0  0  0
   -0.2841   -2.1624   -0.3350 H   0  0  0  0  0  0  0  0  0  0  0  0
   -2.6572   -1.0201   -0.2248 H   0  0  0  0  0  0  0  0  0  0  0  0
   -2.5024    0.2721    1.1534 H   0  0  0  0  0  0  0  0  0  0  0  0
   -1.7045    0.6929   -1.8845 H   0  0  0  0  0  0  0  0  0  0  0  0
   -1.6042    1.9208   -0.4868 H   0  0  0  0  0  0  0  0  0  0  0  0
   -0.0645   -0.0933    2.0391 H   0  0  0  0  0  0  0  0  0  0  0  0
    0.8517    2.0082    0.2577 H   0  0  0  0  0  0  0  0  0  0  0  0
  1  2  2  0
  2  3  1  0
  3  4  1  0
  4  5  1  0
  5  6  1  0
  6  7  1  0
  5  8  1  0
  8  9  1  0
  8  3  1  0
  7  5  1  0
  2 10  1  0
  3 11  1  0
  4 12  1  0
  4 13  1  0
  6 14  1  0
  6 15  1  0
  7 16  1  0
  7 17  1  0
  8 18  1  0
  9 19  1  0
M  END
