
     RDKit          3D

 15 15  0  0  0  0  0  0  0  0999 V2000
   -1.7534    1.7869   -0.8033 O   0  0  0  0  0  0  0  0  0  0  0  0
   -1.7039    0.5658   -0.4880 C   0  0  0  0  0  0  0  0  0  0  0  0
   -0.6257   -0.0130    0.4345 C   0  0  0  0  0  0  0  0  0  0  0  0
   -1.2243   -0.8070    1.4561 O   0  0  0  0  0  0  0  0  0  0  0  0
    0.1706   -1.0115   -0.5073 C   0  0  0  0  0  0  0  0  0  0  0  0
    0.7901    0.1325    0.2454 C   0  0  0  0  0  0  0  0  0  0  0  0
    1.7585   -0.3930    1.0736 O   0  0  0  0  0  0  0  0  0  0  0  0
    1.3921    1.1735   -0.6762 C   0  0  0  0  0  0  0  0  0  0  0  0
    0.7877    2.1170   -0.9634 O   0  0  0  0  0  0  0  0  0  0  0  0
   -2.4289   -0.1714   -0.8844 H   0  0  0  0  0  0  0  0  0  0  0  0
   -1.3625   -0.1677    2.1922 H   0  0  0  0  0  0  0  0  0  0  0  0
    0.2380   -2.0282   -0.0663 H   0  0  0  0  0  0  0  0  0  0  0  0
    0.1254   -0.9073   -1.5535 H   0  0  0  0  0  0  0  0  0  0  0  0
    1.4320   -1.2162    1.5685 H   0  0  0  0  0  0  0  0  0  0  0  0
    2.4043    0.9396   -1.0279 H   0  0  0  0  0  0  0  0  0  0  0  0
  1  2  2  0
  2  3  1  0
  3  4  1  0
  3  5  1  0
  5  6  1  0
  6  7  1  0
  6  8  1  0
  8  9  2  0
  6  3  1  0
  2 10  1  0
  4 11  1  0
  5 12  1  0
  5 13  1  0
  7 14  1  0
  8 15  1  0
M  END
