
     RDKit          3D

 17 17  0  0  0  0  0  0  0  0999 V2000
    2.8950    0.7026    0.8908 O   0  0  0  0  0  0  0  0  0  0  0  0
    2.5982   -0.0022   -0.0421 C   0  0  0  0  0  0  0  0  0  0  0  0
    1.4768   -0.9521    0.0710 C   0  0  0  0  0  0  0  0  0  0  0  0
    0.1641   -0.2404   -0.0588 C   0  0  0  0  0  0  0  0  0  0  0  0
    0.0063    1.0598   -0.2491 C   0  0  0  0  0  0  0  0  0  0  0  0
   -1.4131    1.3798   -0.3234 C   0  0  0  0  0  0  0  0  0  0  0  0
   -1.8983    2.3885   -0.8593 O   0  0  0  0  0  0  0  0  0  0  0  0
   -2.0784    0.2510    0.3676 C   0  0  0  0  0  0  0  0  0  0  0  0
   -1.1585   -0.8813   -0.0057 C   0  0  0  0  0  0  0  0  0  0  0  0
    3.1611    0.0740   -0.9496 H   0  0  0  0  0  0  0  0  0  0  0  0
    1.5565   -1.4354    1.0711 H   0  0  0  0  0  0  0  0  0  0  0  0
    1.5596   -1.7022   -0.7380 H   0  0  0  0  0  0  0  0  0  0  0  0
    0.8597    1.7482   -0.3312 H   0  0  0  0  0  0  0  0  0  0  0  0
   -1.9782    0.4205    1.4560 H   0  0  0  0  0  0  0  0  0  0  0  0
   -3.1218    0.0948    0.0381 H   0  0  0  0  0  0  0  0  0  0  0  0
   -1.4205   -1.1786   -1.0418 H   0  0  0  0  0  0  0  0  0  0  0  0
   -1.2086   -1.7271    0.7043 H   0  0  0  0  0  0  0  0  0  0  0  0
  1  2  2  0
  2  3  1  0
  3  4  1  0
  4  5  2  0
  5  6  1  0
  6  7  2  0
  6  8  1  0
  8  9  1  0
  9  4  1  0
  2 10  1  0
  3 11  1  0
  3 12  1  0
  5 13  1  0
  8 14  1  0
  8 15  1  0
  9 16  1  0
  9 17  1  0
M  END
