
     RDKit          3D

 19 19  0  0  0  0  0  0  0  0999 V2000
    4.7155   -0.7238    0.7753 O   0  0  0  0  0  0  0  0  0  0  0  0
    4.0675    0.3489    0.8546 C   0  0  0  0  0  0  0  0  0  0  0  0
    2.7406    0.4933    0.3321 C   0  0  0  0  0  0  0  0  0  0  0  0
    1.6051    0.5957   -0.1173 C   0  0  0  0  0  0  0  0  0  0  0  0
    0.2530    0.7142   -0.6644 C   0  0  0  0  0  0  0  0  0  0  0  0
   -0.5306   -0.5799   -0.4890 C   0  0  0  0  0  0  0  0  0  0  0  0
   -1.9180   -0.3996   -1.0718 C   0  0  0  0  0  0  0  0  0  0  0  0
   -2.3396    0.0957    0.2976 C   0  0  0  0  0  0  0  0  0  0  0  0
   -1.1961   -0.7196    0.8670 C   0  0  0  0  0  0  0  0  0  0  0  0
    4.5551    1.1795    1.3415 H   0  0  0  0  0  0  0  0  0  0  0  0
   -0.2478    1.5176   -0.0871 H   0  0  0  0  0  0  0  0  0  0  0  0
    0.2763    1.0286   -1.7379 H   0  0  0  0  0  0  0  0  0  0  0  0
    0.0035   -1.4833   -0.8241 H   0  0  0  0  0  0  0  0  0  0  0  0
   -1.9378    0.3683   -1.8718 H   0  0  0  0  0  0  0  0  0  0  0  0
   -2.3250   -1.3924   -1.3428 H   0  0  0  0  0  0  0  0  0  0  0  0
   -2.2075    1.1894    0.3710 H   0  0  0  0  0  0  0  0  0  0  0  0
   -3.3306   -0.2827    0.6170 H   0  0  0  0  0  0  0  0  0  0  0  0
   -1.5089   -1.7526    1.0565 H   0  0  0  0  0  0  0  0  0  0  0  0
   -0.6746   -0.1972    1.6935 H   0  0  0  0  0  0  0  0  0  0  0  0
  1  2  2  0
  2  3  1  0
  3  4  3  0
  4  5  1  0
  5  6  1  0
  6  7  1  0
  7  8  1  0
  8  9  1  0
  9  6  1  0
  2 10  1  0
  5 11  1  0
  5 12  1  0
  6 13  1  0
  7 14  1  0
  7 15  1  0
  8 16  1  0
  8 17  1  0
  9 18  1  0
  9 19  1  0
M  END
