
     RDKit          3D

 15 16  0  0  0  0  0  0  0  0999 V2000
    1.6741    0.4599   -1.8378 O   0  0  0  0  0  0  0  0  0  0  0  0
    2.1075   -0.3285   -0.9350 C   0  0  0  0  0  0  0  0  0  0  0  0
    1.2429   -0.7305    0.1699 C   0  0  0  0  0  0  0  0  0  0  0  0
    1.7879   -1.5248    1.0152 O   0  0  0  0  0  0  0  0  0  0  0  0
   -0.0385   -0.2957    0.2905 C   0  0  0  0  0  0  0  0  0  0  0  0
   -1.1324   -0.4405   -0.7242 C   0  0  0  0  0  0  0  0  0  0  0  0
   -1.6835    0.3053    0.4535 C   0  0  0  0  0  0  0  0  0  0  0  0
   -0.4582    1.1545    0.4214 C   0  0  0  0  0  0  0  0  0  0  0  0
   -0.9590   -0.5773    1.2514 O   0  0  0  0  0  0  0  0  0  0  0  0
    3.1089   -0.6570   -1.0458 H   0  0  0  0  0  0  0  0  0  0  0  0
   -1.5622   -1.4504   -0.8504 H   0  0  0  0  0  0  0  0  0  0  0  0
   -0.9485    0.1175   -1.6398 H   0  0  0  0  0  0  0  0  0  0  0  0
   -2.6373    0.5962    0.5979 H   0  0  0  0  0  0  0  0  0  0  0  0
   -0.3482    1.7711   -0.4720 H   0  0  0  0  0  0  0  0  0  0  0  0
   -0.1535    1.6002    1.3761 H   0  0  0  0  0  0  0  0  0  0  0  0
  1  2  2  0
  2  3  1  0
  3  4  2  0
  3  5  1  0
  5  6  1  0
  6  7  1  0
  7  8  1  0
  7  9  1  0
  8  5  1  0
  9  5  1  0
  2 10  1  0
  6 11  1  0
  6 12  1  0
  7 13  1  0
  8 14  1  0
  8 15  1  0
M  END
