
     RDKit          3D

 17 18  0  0  0  0  0  0  0  0999 V2000
    3.0048    0.8963    0.7015 O   0  0  0  0  0  0  0  0  0  0  0  0
    2.4171   -0.1333    0.4835 C   0  0  0  0  0  0  0  0  0  0  0  0
    1.2116   -0.0943   -0.3807 C   0  0  0  0  0  0  0  0  0  0  0  0
    0.6929   -1.3521   -0.5054 O   0  0  0  0  0  0  0  0  0  0  0  0
   -0.6838   -1.2640   -0.5165 C   0  0  0  0  0  0  0  0  0  0  0  0
   -0.9729   -0.1741    0.4791 C   0  0  0  0  0  0  0  0  0  0  0  0
   -1.7725    0.9227   -0.1513 C   0  0  0  0  0  0  0  0  0  0  0  0
   -0.5805    1.5776   -0.4467 O   0  0  0  0  0  0  0  0  0  0  0  0
    0.1919    0.7611    0.3259 C   0  0  0  0  0  0  0  0  0  0  0  0
    2.7221   -1.0877    0.8853 H   0  0  0  0  0  0  0  0  0  0  0  0
    1.4493    0.2986   -1.4016 H   0  0  0  0  0  0  0  0  0  0  0  0
   -1.1985   -2.1706   -0.2039 H   0  0  0  0  0  0  0  0  0  0  0  0
   -1.0491   -1.0042   -1.5311 H   0  0  0  0  0  0  0  0  0  0  0  0
   -1.2032   -0.4675    1.4921 H   0  0  0  0  0  0  0  0  0  0  0  0
   -2.4179    1.4102    0.5963 H   0  0  0  0  0  0  0  0  0  0  0  0
   -2.2985    0.6634   -1.0924 H   0  0  0  0  0  0  0  0  0  0  0  0
    0.4873    1.2177    1.2660 H   0  0  0  0  0  0  0  0  0  0  0  0
  1  2  2  0
  2  3  1  0
  3  4  1  0
  4  5  1  0
  5  6  1  0
  6  7  1  0
  7  8  1  0
  8  9  1  0
  9  3  1  0
  9  6  1  0
  2 10  1  0
  3 11  1  0
  5 12  1  0
  5 13  1  0
  6 14  1  0
  7 15  1  0
  7 16  1  0
  9 17  1  0
M  END
