
     RDKit          3D

 17 18  0  0  0  0  0  0  0  0999 V2000
    1.6183    1.6697   -1.2473 O   0  0  0  0  0  0  0  0  0  0  0  0
    2.1075    0.7833   -0.5844 C   0  0  0  0  0  0  0  0  0  0  0  0
    1.5213    0.1646    0.6166 C   0  0  0  0  0  0  0  0  0  0  0  0
    0.1459   -0.3709    0.4784 C   0  0  0  0  0  0  0  0  0  0  0  0
   -0.3437   -0.9450    1.6824 O   0  0  0  0  0  0  0  0  0  0  0  0
   -0.8384    0.4044   -0.3006 C   0  0  0  0  0  0  0  0  0  0  0  0
   -2.2449   -0.1677   -0.2996 C   0  0  0  0  0  0  0  0  0  0  0  0
   -1.6937   -1.3762   -0.7481 O   0  0  0  0  0  0  0  0  0  0  0  0
   -0.3600   -0.9835   -0.7474 C   0  0  0  0  0  0  0  0  0  0  0  0
    3.0872    0.3942   -0.9091 H   0  0  0  0  0  0  0  0  0  0  0  0
    2.1909   -0.5840    1.0846 H   0  0  0  0  0  0  0  0  0  0  0  0
    1.4681    1.0209    1.3718 H   0  0  0  0  0  0  0  0  0  0  0  0
   -0.7556   -0.2149    2.1978 H   0  0  0  0  0  0  0  0  0  0  0  0
   -0.5912    1.2083   -0.9964 H   0  0  0  0  0  0  0  0  0  0  0  0
   -2.6018   -0.2824    0.7498 H   0  0  0  0  0  0  0  0  0  0  0  0
   -2.9305    0.3122   -1.0082 H   0  0  0  0  0  0  0  0  0  0  0  0
    0.2206   -1.0329   -1.6922 H   0  0  0  0  0  0  0  0  0  0  0  0
  1  2  2  0
  2  3  1  0
  3  4  1  0
  4  5  1  0
  4  6  1  0
  6  7  1  0
  7  8  1  0
  8  9  1  0
  9  4  1  0
  9  6  1  0
  2 10  1  0
  3 11  1  0
  3 12  1  0
  5 13  1  0
  6 14  1  0
  7 15  1  0
  7 16  1  0
  9 17  1  0
M  END
