
     RDKit          3D

 12 11  0  0  0  0  0  0  0  0999 V2000
    2.7806    2.1439    1.6888 O   0  0  0  0  0  0  0  0  0  0  0  0
    1.5786    1.9516    1.6186 C   0  0  0  0  0  0  0  0  0  0  0  0
    0.8506    0.8789    1.0230 C   0  0  0  0  0  0  0  0  0  0  0  0
    0.2592   -0.0180    0.5457 C   0  0  0  0  0  0  0  0  0  0  0  0
   -0.4984   -1.2027   -0.0647 C   0  0  0  0  0  0  0  0  0  0  0  0
    0.3853   -1.9107   -0.7938 O   0  0  0  0  0  0  0  0  0  0  0  0
   -1.6014   -0.5466   -0.8745 C   0  0  0  0  0  0  0  0  0  0  0  0
   -2.4573    0.0790   -0.2870 O   0  0  0  0  0  0  0  0  0  0  0  0
    0.8998    2.7259    2.0852 H   0  0  0  0  0  0  0  0  0  0  0  0
   -0.9063   -1.7240    0.7707 H   0  0  0  0  0  0  0  0  0  0  0  0
    0.3261   -1.7439   -1.7818 H   0  0  0  0  0  0  0  0  0  0  0  0
   -1.6167   -0.6335   -1.9342 H   0  0  0  0  0  0  0  0  0  0  0  0
  1  2  2  0
  2  3  1  0
  3  4  3  0
  4  5  1  0
  5  6  1  0
  5  7  1  0
  7  8  2  0
  2  9  1  0
  5 10  1  0
  6 11  1  0
  7 12  1  0
M  END
