
     RDKit          3D

 17 18  0  0  0  0  0  0  0  0999 V2000
   -1.9573    0.2478   -2.0288 O   0  0  0  0  0  0  0  0  0  0  0  0
   -1.9460   -0.0291   -0.8641 C   0  0  0  0  0  0  0  0  0  0  0  0
   -0.7250   -0.1287   -0.0422 C   0  0  0  0  0  0  0  0  0  0  0  0
   -0.1480    1.1923    0.4104 C   0  0  0  0  0  0  0  0  0  0  0  0
    0.9218    1.5281   -0.4397 O   0  0  0  0  0  0  0  0  0  0  0  0
    1.9747    0.6570   -0.2882 C   0  0  0  0  0  0  0  0  0  0  0  0
    1.6311   -0.6356   -0.0123 O   0  0  0  0  0  0  0  0  0  0  0  0
    0.3825   -1.0212   -0.4118 C   0  0  0  0  0  0  0  0  0  0  0  0
   -0.5699   -1.3569    0.7635 C   0  0  0  0  0  0  0  0  0  0  0  0
   -2.9031   -0.2227   -0.3697 H   0  0  0  0  0  0  0  0  0  0  0  0
   -0.9084    2.0050    0.2863 H   0  0  0  0  0  0  0  0  0  0  0  0
    0.1526    1.1791    1.4583 H   0  0  0  0  0  0  0  0  0  0  0  0
    2.6218    1.0795    0.5364 H   0  0  0  0  0  0  0  0  0  0  0  0
    2.6171    0.6979   -1.2172 H   0  0  0  0  0  0  0  0  0  0  0  0
    0.3175   -1.7123   -1.2805 H   0  0  0  0  0  0  0  0  0  0  0  0
   -1.2967   -2.1693    0.6032 H   0  0  0  0  0  0  0  0  0  0  0  0
   -0.1648   -1.3109    1.7774 H   0  0  0  0  0  0  0  0  0  0  0  0
  1  2  2  0
  2  3  1  0
  3  4  1  0
  4  5  1  0
  5  6  1  0
  6  7  1  0
  7  8  1  0
  8  9  1  0
  8  3  1  0
  9  3  1  0
  2 10  1  0
  4 11  1  0
  4 12  1  0
  6 13  1  0
  6 14  1  0
  8 15  1  0
  9 16  1  0
  9 17  1  0
M  END
