
     RDKit          3D

 13 14  0  0  0  0  0  0  0  0999 V2000
   -0.2230    2.6921    1.0478 O   0  0  0  0  0  0  0  0  0  0  0  0
   -0.6142    1.7453    0.4011 C   0  0  0  0  0  0  0  0  0  0  0  0
   -0.0109    0.3906    0.4797 C   0  0  0  0  0  0  0  0  0  0  0  0
    1.0681    0.1401    1.3269 O   0  0  0  0  0  0  0  0  0  0  0  0
    1.7685   -0.3401    0.2036 C   0  0  0  0  0  0  0  0  0  0  0  0
    2.9811   -0.6528    0.0975 O   0  0  0  0  0  0  0  0  0  0  0  0
    0.5491   -0.3035   -0.6749 C   0  0  0  0  0  0  0  0  0  0  0  0
   -0.7338   -0.7814   -0.0870 C   0  0  0  0  0  0  0  0  0  0  0  0
   -0.7342   -1.9190    0.7213 O   0  0  0  0  0  0  0  0  0  0  0  0
   -1.4497    1.8778   -0.2768 H   0  0  0  0  0  0  0  0  0  0  0  0
    0.6218    0.1135   -1.6783 H   0  0  0  0  0  0  0  0  0  0  0  0
   -1.6349   -0.5689   -0.6957 H   0  0  0  0  0  0  0  0  0  0  0  0
   -1.5879   -2.3938    0.5527 H   0  0  0  0  0  0  0  0  0  0  0  0
  1  2  2  0
  2  3  1  0
  3  4  1  0
  4  5  1  0
  5  6  2  0
  5  7  1  0
  7  8  1  0
  8  9  1  0
  7  3  1  0
  8  3  1  0
  2 10  1  0
  7 11  1  0
  8 12  1  0
  9 13  1  0
M  END
