
     RDKit          3D

 19 18  0  0  0  0  0  0  0  0999 V2000
    3.1836   -0.0029   -1.0779 O   0  0  0  0  0  0  0  0  0  0  0  0
    2.1523   -0.6513   -1.1504 C   0  0  0  0  0  0  0  0  0  0  0  0
    1.4543   -1.2088    0.0348 C   0  0  0  0  0  0  0  0  0  0  0  0
    0.6295   -0.1739    0.7594 C   0  0  0  0  0  0  0  0  0  0  0  0
   -0.4376    0.4215   -0.1312 C   0  0  0  0  0  0  0  0  0  0  0  0
   -1.3210   -0.6774   -0.5761 C   0  0  0  0  0  0  0  0  0  0  0  0
   -1.4855   -1.6374    0.1394 O   0  0  0  0  0  0  0  0  0  0  0  0
   -1.2128    1.4235    0.7141 C   0  0  0  0  0  0  0  0  0  0  0  0
   -2.2218    2.0326   -0.0089 O   0  0  0  0  0  0  0  0  0  0  0  0
    1.7580   -0.8044   -2.1657 H   0  0  0  0  0  0  0  0  0  0  0  0
    2.2619   -1.5158    0.7528 H   0  0  0  0  0  0  0  0  0  0  0  0
    0.8823   -2.1180   -0.1989 H   0  0  0  0  0  0  0  0  0  0  0  0
    1.3205    0.5903    1.1499 H   0  0  0  0  0  0  0  0  0  0  0  0
    0.1622   -0.6819    1.6283 H   0  0  0  0  0  0  0  0  0  0  0  0
   -0.0117    0.9847   -0.9712 H   0  0  0  0  0  0  0  0  0  0  0  0
   -1.8205   -0.6408   -1.5240 H   0  0  0  0  0  0  0  0  0  0  0  0
   -0.5615    2.2107    1.1211 H   0  0  0  0  0  0  0  0  0  0  0  0
   -1.6886    0.9317    1.5929 H   0  0  0  0  0  0  0  0  0  0  0  0
   -3.0434    1.5175   -0.0881 H   0  0  0  0  0  0  0  0  0  0  0  0
  1  2  2  0
  2  3  1  0
  3  4  1  0
  4  5  1  0
  5  6  1  0
  6  7  2  0
  5  8  1  0
  8  9  1  0
  2 10  1  0
  3 11  1  0
  3 12  1  0
  4 13  1  0
  4 14  1  0
  5 15  1  0
  6 16  1  0
  8 17  1  0
  8 18  1  0
  9 19  1  0
M  END
