
     RDKit          3D

 21 22  0  0  0  0  0  0  0  0999 V2000
    2.8638    0.2299    0.8566 O   0  0  0  0  0  0  0  0  0  0  0  0
    2.5236    0.1353   -0.3110 C   0  0  0  0  0  0  0  0  0  0  0  0
    1.0722   -0.0190   -0.6256 C   0  0  0  0  0  0  0  0  0  0  0  0
    0.4908   -1.2156    0.0850 C   0  0  0  0  0  0  0  0  0  0  0  0
   -1.0121   -1.0817    0.2745 C   0  0  0  0  0  0  0  0  0  0  0  0
   -1.5552   -0.1640   -0.8191 C   0  0  0  0  0  0  0  0  0  0  0  0
   -1.0934    0.9911    0.0409 C   0  0  0  0  0  0  0  0  0  0  0  0
    0.3758    1.2442   -0.1113 C   0  0  0  0  0  0  0  0  0  0  0  0
   -1.2532    0.0450    1.2402 C   0  0  0  0  0  0  0  0  0  0  0  0
    3.2878    0.1663   -1.0865 H   0  0  0  0  0  0  0  0  0  0  0  0
    0.9833   -0.0796   -1.7248 H   0  0  0  0  0  0  0  0  0  0  0  0
    0.6899   -2.1215   -0.5277 H   0  0  0  0  0  0  0  0  0  0  0  0
    0.9412   -1.2567    1.0846 H   0  0  0  0  0  0  0  0  0  0  0  0
   -1.5533   -2.0072    0.4301 H   0  0  0  0  0  0  0  0  0  0  0  0
   -2.6455   -0.2245   -0.8945 H   0  0  0  0  0  0  0  0  0  0  0  0
   -1.0431   -0.3113   -1.7645 H   0  0  0  0  0  0  0  0  0  0  0  0
   -1.7425    1.8650    0.0720 H   0  0  0  0  0  0  0  0  0  0  0  0
    0.5779    2.0884   -0.7789 H   0  0  0  0  0  0  0  0  0  0  0  0
    0.7960    1.4377    0.9091 H   0  0  0  0  0  0  0  0  0  0  0  0
   -2.2667    0.0894    1.6826 H   0  0  0  0  0  0  0  0  0  0  0  0
   -0.4373    0.1888    1.9683 H   0  0  0  0  0  0  0  0  0  0  0  0
  1  2  2  0
  2  3  1  0
  3  4  1  0
  4  5  1  0
  5  6  1  0
  6  7  1  0
  7  8  1  0
  7  9  1  0
  8  3  1  0
  9  5  1  0
  2 10  1  0
  3 11  1  0
  4 12  1  0
  4 13  1  0
  5 14  1  0
  6 15  1  0
  6 16  1  0
  7 17  1  0
  8 18  1  0
  8 19  1  0
  9 20  1  0
  9 21  1  0
M  END
