
     RDKit          3D

 15 17  0  0  0  0  0  0  0  0999 V2000
    2.7655    0.0340    1.3427 O   0  0  0  0  0  0  0  0  0  0  0  0
    2.2053   -0.1930    0.2739 C   0  0  0  0  0  0  0  0  0  0  0  0
    0.7646    0.0692    0.1684 C   0  0  0  0  0  0  0  0  0  0  0  0
    0.0671    0.5642    1.2674 O   0  0  0  0  0  0  0  0  0  0  0  0
   -1.1937    0.7593    0.7262 C   0  0  0  0  0  0  0  0  0  0  0  0
   -1.4511   -0.6406    0.1454 C   0  0  0  0  0  0  0  0  0  0  0  0
   -0.1529   -0.7122   -0.6671 C   0  0  0  0  0  0  0  0  0  0  0  0
    0.1161    0.6922   -0.9773 C   0  0  0  0  0  0  0  0  0  0  0  0
   -0.9320    1.4680   -0.4221 O   0  0  0  0  0  0  0  0  0  0  0  0
    2.8121   -0.5714   -0.5189 H   0  0  0  0  0  0  0  0  0  0  0  0
   -1.9557    1.1145    1.3766 H   0  0  0  0  0  0  0  0  0  0  0  0
   -2.3368   -0.6591   -0.4944 H   0  0  0  0  0  0  0  0  0  0  0  0
   -1.4078   -1.4054    0.9178 H   0  0  0  0  0  0  0  0  0  0  0  0
    0.0840   -1.5683   -1.2611 H   0  0  0  0  0  0  0  0  0  0  0  0
    0.6153    1.0484   -1.8775 H   0  0  0  0  0  0  0  0  0  0  0  0
  1  2  2  0
  2  3  1  0
  3  4  1  0
  4  5  1  0
  5  6  1  0
  6  7  1  0
  7  8  1  0
  8  9  1  0
  7  3  1  0
  8  3  1  0
  9  5  1  0
  2 10  1  0
  5 11  1  0
  6 12  1  0
  6 13  1  0
  7 14  1  0
  8 15  1  0
M  END
