
     RDKit          3D

 19 20  0  0  0  0  0  0  0  0999 V2000
    3.3106    0.9055    0.2260 O   0  0  0  0  0  0  0  0  0  0  0  0
    2.5448    0.0528    0.7414 C   0  0  0  0  0  0  0  0  0  0  0  0
    1.2157   -0.2056    0.2144 C   0  0  0  0  0  0  0  0  0  0  0  0
    0.3902   -1.0911    0.7308 C   0  0  0  0  0  0  0  0  0  0  0  0
   -0.9534   -1.3543    0.2010 C   0  0  0  0  0  0  0  0  0  0  0  0
   -1.5938   -0.1663   -0.4418 C   0  0  0  0  0  0  0  0  0  0  0  0
   -1.4418    1.1165    0.3559 C   0  0  0  0  0  0  0  0  0  0  0  0
   -0.6925    0.8997   -0.8815 C   0  0  0  0  0  0  0  0  0  0  0  0
    0.7434    0.5498   -0.9644 C   0  0  0  0  0  0  0  0  0  0  0  0
    2.9031   -0.4940    1.6007 H   0  0  0  0  0  0  0  0  0  0  0  0
    0.6981   -1.6790    1.6041 H   0  0  0  0  0  0  0  0  0  0  0  0
   -1.6078   -1.6592    1.0431 H   0  0  0  0  0  0  0  0  0  0  0  0
   -0.9004   -2.2255   -0.4992 H   0  0  0  0  0  0  0  0  0  0  0  0
   -2.5783   -0.3261   -0.8758 H   0  0  0  0  0  0  0  0  0  0  0  0
   -0.9618    1.0697    1.3613 H   0  0  0  0  0  0  0  0  0  0  0  0
   -2.2963    1.8449    0.3577 H   0  0  0  0  0  0  0  0  0  0  0  0
   -1.0591    1.4951   -1.7699 H   0  0  0  0  0  0  0  0  0  0  0  0
    0.8808   -0.1430   -1.8464 H   0  0  0  0  0  0  0  0  0  0  0  0
    1.3984    1.4099   -1.1574 H   0  0  0  0  0  0  0  0  0  0  0  0
  1  2  2  0
  2  3  1  0
  3  4  2  0
  4  5  1  0
  5  6  1  0
  6  7  1  0
  7  8  1  0
  8  9  1  0
  9  3  1  0
  8  6  1  0
  2 10  1  0
  4 11  1  0
  5 12  1  0
  5 13  1  0
  6 14  1  0
  7 15  1  0
  7 16  1  0
  8 17  1  0
  9 18  1  0
  9 19  1  0
M  END
