
     RDKit          3D

 17 19  0  0  0  0  0  0  0  0999 V2000
    1.9798   -1.2682    1.9977 O   0  0  0  0  0  0  0  0  0  0  0  0
    1.7515   -1.1980    0.8053 C   0  0  0  0  0  0  0  0  0  0  0  0
    0.6887   -0.3031    0.2782 C   0  0  0  0  0  0  0  0  0  0  0  0
    1.1034    1.0673   -0.2128 C   0  0  0  0  0  0  0  0  0  0  0  0
   -0.2260    1.6767   -0.5742 C   0  0  0  0  0  0  0  0  0  0  0  0
   -1.1719    0.7886   -0.4287 C   0  0  0  0  0  0  0  0  0  0  0  0
   -1.9824   -0.3949   -0.1808 C   0  0  0  0  0  0  0  0  0  0  0  0
   -0.7109   -0.7259    0.7372 C   0  0  0  0  0  0  0  0  0  0  0  0
   -0.2819   -0.5412   -0.6405 C   0  0  0  0  0  0  0  0  0  0  0  0
    2.3444   -1.8050    0.1447 H   0  0  0  0  0  0  0  0  0  0  0  0
    1.6334    1.6582    0.5461 H   0  0  0  0  0  0  0  0  0  0  0  0
    1.6449    0.9604   -1.1693 H   0  0  0  0  0  0  0  0  0  0  0  0
   -0.3275    2.7025   -0.8992 H   0  0  0  0  0  0  0  0  0  0  0  0
   -2.0973   -1.1188   -0.9720 H   0  0  0  0  0  0  0  0  0  0  0  0
   -2.8908   -0.2872    0.4161 H   0  0  0  0  0  0  0  0  0  0  0  0
   -0.8670   -0.0205    1.5576 H   0  0  0  0  0  0  0  0  0  0  0  0
   -0.5902   -1.1908   -1.4054 H   0  0  0  0  0  0  0  0  0  0  0  0
  1  2  2  0
  2  3  1  0
  3  4  1  0
  4  5  1  0
  5  6  2  0
  6  7  1  0
  7  8  1  0
  8  9  1  0
  8  3  1  0
  9  3  1  0
  9  6  1  0
  2 10  1  0
  4 11  1  0
  4 12  1  0
  5 13  1  0
  7 14  1  0
  7 15  1  0
  8 16  1  0
  9 17  1  0
M  END
