
     RDKit          3D

 19 19  0  0  0  0  0  0  0  0999 V2000
    4.2923   -0.1890   -0.1306 O   0  0  0  0  0  0  0  0  0  0  0  0
    3.2090    0.0489   -0.6110 C   0  0  0  0  0  0  0  0  0  0  0  0
    1.9974   -0.1431    0.1734 C   0  0  0  0  0  0  0  0  0  0  0  0
    0.8279    0.1613   -0.4825 O   0  0  0  0  0  0  0  0  0  0  0  0
   -0.2277   -0.0683    0.3804 C   0  0  0  0  0  0  0  0  0  0  0  0
   -1.2664   -0.9958   -0.1514 C   0  0  0  0  0  0  0  0  0  0  0  0
   -2.5166   -0.1357   -0.1264 C   0  0  0  0  0  0  0  0  0  0  0  0
   -2.2612    0.6849    0.9941 O   0  0  0  0  0  0  0  0  0  0  0  0
   -1.0108    1.2144    0.6329 C   0  0  0  0  0  0  0  0  0  0  0  0
    3.1520    0.4035   -1.6230 H   0  0  0  0  0  0  0  0  0  0  0  0
    2.0529    0.5058    1.0741 H   0  0  0  0  0  0  0  0  0  0  0  0
    1.9343   -1.2139    0.4806 H   0  0  0  0  0  0  0  0  0  0  0  0
    0.0910   -0.4344    1.3759 H   0  0  0  0  0  0  0  0  0  0  0  0
   -1.1100   -1.3209   -1.1870 H   0  0  0  0  0  0  0  0  0  0  0  0
   -1.4523   -1.8850    0.5065 H   0  0  0  0  0  0  0  0  0  0  0  0
   -3.4281   -0.7153    0.0855 H   0  0  0  0  0  0  0  0  0  0  0  0
   -2.5874    0.5315   -0.9925 H   0  0  0  0  0  0  0  0  0  0  0  0
   -1.1585    1.8006   -0.2795 H   0  0  0  0  0  0  0  0  0  0  0  0
   -0.5377    1.7503    1.4627 H   0  0  0  0  0  0  0  0  0  0  0  0
  1  2  2  0
  2  3  1  0
  3  4  1  0
  4  5  1  0
  5  6  1  0
  6  7  1  0
  7  8  1  0
  8  9  1  0
  9  5  1  0
  2 10  1  0
  3 11  1  0
  3 12  1  0
  5 13  1  0
  6 14  1  0
  6 15  1  0
  7 16  1  0
  7 17  1  0
  9 18  1  0
  9 19  1  0
M  END
