
     RDKit          3D

 18 18  0  0  0  0  0  0  0  0999 V2000
    1.5694    0.0085    1.8099 O   0  0  0  0  0  0  0  0  0  0  0  0
    1.8448   -0.0884    0.6294 C   0  0  0  0  0  0  0  0  0  0  0  0
    0.7773   -0.0946   -0.3885 C   0  0  0  0  0  0  0  0  0  0  0  0
    1.2700   -0.2111   -1.6657 O   0  0  0  0  0  0  0  0  0  0  0  0
    0.0239    1.2333   -0.3090 C   0  0  0  0  0  0  0  0  0  0  0  0
   -1.3651    0.8927    0.1219 C   0  0  0  0  0  0  0  0  0  0  0  0
   -1.3326   -0.5025    0.7000 C   0  0  0  0  0  0  0  0  0  0  0  0
   -0.2569   -1.1575   -0.1509 C   0  0  0  0  0  0  0  0  0  0  0  0
    2.8732   -0.1721    0.2974 H   0  0  0  0  0  0  0  0  0  0  0  0
    1.7885   -1.0542   -1.7446 H   0  0  0  0  0  0  0  0  0  0  0  0
    0.5420    1.9224    0.3869 H   0  0  0  0  0  0  0  0  0  0  0  0
   -0.0046    1.7450   -1.2900 H   0  0  0  0  0  0  0  0  0  0  0  0
   -1.6761    1.5964    0.8989 H   0  0  0  0  0  0  0  0  0  0  0  0
   -2.0451    0.8707   -0.7525 H   0  0  0  0  0  0  0  0  0  0  0  0
   -1.1071   -0.5228    1.7708 H   0  0  0  0  0  0  0  0  0  0  0  0
   -2.3086   -0.9863    0.5024 H   0  0  0  0  0  0  0  0  0  0  0  0
   -0.7382   -1.4075   -1.1292 H   0  0  0  0  0  0  0  0  0  0  0  0
    0.1453   -2.0722    0.3128 H   0  0  0  0  0  0  0  0  0  0  0  0
  1  2  2  0
  2  3  1  0
  3  4  1  0
  3  5  1  0
  5  6  1  0
  6  7  1  0
  7  8  1  0
  8  3  1  0
  2  9  1  0
  4 10  1  0
  5 11  1  0
  5 12  1  0
  6 13  1  0
  6 14  1  0
  7 15  1  0
  7 16  1  0
  8 17  1  0
  8 18  1  0
M  END
