
     RDKit          3D

 18 18  0  0  0  0  0  0  0  0999 V2000
    2.1744   -0.3716    1.0925 O   0  0  0  0  0  0  0  0  0  0  0  0
    1.7531    0.0173    0.0152 C   0  0  0  0  0  0  0  0  0  0  0  0
    0.6547   -0.7420   -0.6005 C   0  0  0  0  0  0  0  0  0  0  0  0
   -0.1983   -1.3394    0.5008 C   0  0  0  0  0  0  0  0  0  0  0  0
   -0.8769   -0.1214    1.0661 C   0  0  0  0  0  0  0  0  0  0  0  0
   -0.8490    0.9416   -0.0001 C   0  0  0  0  0  0  0  0  0  0  0  0
    0.1308    1.8761    0.3674 O   0  0  0  0  0  0  0  0  0  0  0  0
   -0.3967    0.1904   -1.2206 C   0  0  0  0  0  0  0  0  0  0  0  0
    2.2078    0.8910   -0.4217 H   0  0  0  0  0  0  0  0  0  0  0  0
    0.9881   -1.4892   -1.3376 H   0  0  0  0  0  0  0  0  0  0  0  0
    0.3977   -1.8582    1.2704 H   0  0  0  0  0  0  0  0  0  0  0  0
   -0.9182   -2.0442    0.0193 H   0  0  0  0  0  0  0  0  0  0  0  0
   -1.9034   -0.3938    1.3463 H   0  0  0  0  0  0  0  0  0  0  0  0
   -0.2950    0.1753    1.9749 H   0  0  0  0  0  0  0  0  0  0  0  0
   -1.8325    1.4050   -0.1460 H   0  0  0  0  0  0  0  0  0  0  0  0
    0.1810    2.5382   -0.3830 H   0  0  0  0  0  0  0  0  0  0  0  0
   -1.2275   -0.4819   -1.5294 H   0  0  0  0  0  0  0  0  0  0  0  0
    0.0101    0.8067   -2.0139 H   0  0  0  0  0  0  0  0  0  0  0  0
  1  2  2  0
  2  3  1  0
  3  4  1  0
  4  5  1  0
  5  6  1  0
  6  7  1  0
  6  8  1  0
  8  3  1  0
  2  9  1  0
  3 10  1  0
  4 11  1  0
  4 12  1  0
  5 13  1  0
  5 14  1  0
  6 15  1  0
  7 16  1  0
  8 17  1  0
  8 18  1  0
M  END
