
     RDKit          3D

 17 17  0  0  0  0  0  0  0  0999 V2000
    3.2974   -0.6187    0.0666 O   0  0  0  0  0  0  0  0  0  0  0  0
    2.2142   -0.4337    0.5921 C   0  0  0  0  0  0  0  0  0  0  0  0
    1.2798    0.5524   -0.0186 C   0  0  0  0  0  0  0  0  0  0  0  0
    1.8421    1.1257   -1.1528 O   0  0  0  0  0  0  0  0  0  0  0  0
    0.0594   -0.2256   -0.4724 C   0  0  0  0  0  0  0  0  0  0  0  0
   -0.5785   -0.8767    0.6956 C   0  0  0  0  0  0  0  0  0  0  0  0
   -1.8252   -0.4421    0.7381 C   0  0  0  0  0  0  0  0  0  0  0  0
   -2.0550    0.5005   -0.3860 C   0  0  0  0  0  0  0  0  0  0  0  0
   -0.8808    0.5514   -1.0854 O   0  0  0  0  0  0  0  0  0  0  0  0
    1.9909   -1.0035    1.4828 H   0  0  0  0  0  0  0  0  0  0  0  0
    0.9931    1.3507    0.7221 H   0  0  0  0  0  0  0  0  0  0  0  0
    1.1846    1.2141   -1.8981 H   0  0  0  0  0  0  0  0  0  0  0  0
    0.4387   -1.0409   -1.1270 H   0  0  0  0  0  0  0  0  0  0  0  0
   -0.1477   -1.5751    1.4002 H   0  0  0  0  0  0  0  0  0  0  0  0
   -2.6007   -0.6970    1.4537 H   0  0  0  0  0  0  0  0  0  0  0  0
   -2.2972    1.5268   -0.0386 H   0  0  0  0  0  0  0  0  0  0  0  0
   -2.9149    0.0917   -0.9723 H   0  0  0  0  0  0  0  0  0  0  0  0
  1  2  2  0
  2  3  1  0
  3  4  1  0
  3  5  1  0
  5  6  1  0
  6  7  2  0
  7  8  1  0
  8  9  1  0
  9  5  1  0
  2 10  1  0
  3 11  1  0
  4 12  1  0
  5 13  1  0
  6 14  1  0
  7 15  1  0
  8 16  1  0
  8 17  1  0
M  END
