
     RDKit          3D

 21 22  0  0  0  0  0  0  0  0999 V2000
    2.6098   -1.9779   -0.6933 O   0  0  0  0  0  0  0  0  0  0  0  0
    2.0332   -1.1259   -0.0515 C   0  0  0  0  0  0  0  0  0  0  0  0
    1.8238    0.2089   -0.6507 C   0  0  0  0  0  0  0  0  0  0  0  0
    1.8233    1.3727    0.3573 C   0  0  0  0  0  0  0  0  0  0  0  0
    0.5674    0.9803   -0.2906 C   0  0  0  0  0  0  0  0  0  0  0  0
   -0.4759    0.1574    0.4199 C   0  0  0  0  0  0  0  0  0  0  0  0
   -0.9664   -1.0400   -0.4071 C   0  0  0  0  0  0  0  0  0  0  0  0
   -2.3392   -0.7553    0.2140 C   0  0  0  0  0  0  0  0  0  0  0  0
   -1.8924    0.6952    0.2807 C   0  0  0  0  0  0  0  0  0  0  0  0
    1.6934   -1.3729    0.9345 H   0  0  0  0  0  0  0  0  0  0  0  0
    2.1884    0.4078   -1.6551 H   0  0  0  0  0  0  0  0  0  0  0  0
    2.0315    1.1072    1.4248 H   0  0  0  0  0  0  0  0  0  0  0  0
    2.3407    2.2713    0.0096 H   0  0  0  0  0  0  0  0  0  0  0  0
    0.1493    1.6892   -1.0361 H   0  0  0  0  0  0  0  0  0  0  0  0
   -0.2461   -0.0992    1.4696 H   0  0  0  0  0  0  0  0  0  0  0  0
   -0.5197   -1.9933   -0.1261 H   0  0  0  0  0  0  0  0  0  0  0  0
   -0.8871   -0.7748   -1.4722 H   0  0  0  0  0  0  0  0  0  0  0  0
   -2.3676   -1.1893    1.2285 H   0  0  0  0  0  0  0  0  0  0  0  0
   -3.1882   -0.9561   -0.4423 H   0  0  0  0  0  0  0  0  0  0  0  0
   -2.0666    1.2281   -0.6859 H   0  0  0  0  0  0  0  0  0  0  0  0
   -2.3117    1.1666    1.1720 H   0  0  0  0  0  0  0  0  0  0  0  0
  1  2  2  0
  2  3  1  0
  3  4  1  0
  4  5  1  0
  5  6  1  0
  6  7  1  0
  7  8  1  0
  8  9  1  0
  5  3  1  0
  9  6  1  0
  2 10  1  0
  3 11  1  0
  4 12  1  0
  4 13  1  0
  5 14  1  0
  6 15  1  0
  7 16  1  0
  7 17  1  0
  8 18  1  0
  8 19  1  0
  9 20  1  0
  9 21  1  0
M  END
