
     RDKit          3D

 17 17  0  0  0  0  0  0  0  0999 V2000
    4.0314    0.6546   -0.5996 O   0  0  0  0  0  0  0  0  0  0  0  0
    2.9119    0.1857   -0.5156 C   0  0  0  0  0  0  0  0  0  0  0  0
    2.3935   -0.2109    0.8056 C   0  0  0  0  0  0  0  0  0  0  0  0
    1.0805   -0.7341    0.7147 O   0  0  0  0  0  0  0  0  0  0  0  0
    0.0081   -0.0058    0.2203 C   0  0  0  0  0  0  0  0  0  0  0  0
    0.2352    1.1696   -0.1584 O   0  0  0  0  0  0  0  0  0  0  0  0
   -1.3804   -0.5718    0.1288 C   0  0  0  0  0  0  0  0  0  0  0  0
   -2.2999   -0.1004   -0.9298 C   0  0  0  0  0  0  0  0  0  0  0  0
   -2.4902    0.3659    0.5233 C   0  0  0  0  0  0  0  0  0  0  0  0
    2.2940    0.0561   -1.3913 H   0  0  0  0  0  0  0  0  0  0  0  0
    2.4406    0.6099    1.5614 H   0  0  0  0  0  0  0  0  0  0  0  0
    3.0293   -1.0713    1.1685 H   0  0  0  0  0  0  0  0  0  0  0  0
   -1.5296   -1.6138    0.4757 H   0  0  0  0  0  0  0  0  0  0  0  0
   -3.0578   -0.8094   -1.3381 H   0  0  0  0  0  0  0  0  0  0  0  0
   -2.0376    0.6939   -1.6420 H   0  0  0  0  0  0  0  0  0  0  0  0
   -2.2413    1.4110    0.7484 H   0  0  0  0  0  0  0  0  0  0  0  0
   -3.3876   -0.0291    1.0523 H   0  0  0  0  0  0  0  0  0  0  0  0
  1  2  2  0
  2  3  1  0
  3  4  1  0
  4  5  1  0
  5  6  2  0
  5  7  1  0
  7  8  1  0
  8  9  1  0
  9  7  1  0
  2 10  1  0
  3 11  1  0
  3 12  1  0
  7 13  1  0
  8 14  1  0
  8 15  1  0
  9 16  1  0
  9 17  1  0
M  END
