
     RDKit          3D

 14 15  0  0  0  0  0  0  0  0999 V2000
   -1.9341    0.9938   -0.5798 O   0  0  0  0  0  0  0  0  0  0  0  0
   -1.8815    0.0172    0.1353 C   0  0  0  0  0  0  0  0  0  0  0  0
   -0.8733   -1.0605   -0.0316 C   0  0  0  0  0  0  0  0  0  0  0  0
   -0.0588   -0.7220   -1.1109 O   0  0  0  0  0  0  0  0  0  0  0  0
    0.5878    0.4074   -0.6147 C   0  0  0  0  0  0  0  0  0  0  0  0
    1.9015    0.2804    0.0546 C   0  0  0  0  0  0  0  0  0  0  0  0
    0.6232    0.2154    0.8907 C   0  0  0  0  0  0  0  0  0  0  0  0
    0.0050   -1.0100    1.0324 O   0  0  0  0  0  0  0  0  0  0  0  0
   -2.6365   -0.0309    0.9328 H   0  0  0  0  0  0  0  0  0  0  0  0
   -1.3464   -2.0533   -0.1606 H   0  0  0  0  0  0  0  0  0  0  0  0
    0.3163    1.3889   -1.0424 H   0  0  0  0  0  0  0  0  0  0  0  0
    2.4711    1.2200    0.1909 H   0  0  0  0  0  0  0  0  0  0  0  0
    2.4472   -0.6918    0.0464 H   0  0  0  0  0  0  0  0  0  0  0  0
    0.3784    1.0454    1.5487 H   0  0  0  0  0  0  0  0  0  0  0  0
  1  2  2  0
  2  3  1  0
  3  4  1  0
  4  5  1  0
  5  6  1  0
  6  7  1  0
  7  8  1  0
  8  3  1  0
  7  5  1  0
  2  9  1  0
  3 10  1  0
  5 11  1  0
  6 12  1  0
  6 13  1  0
  7 14  1  0
M  END
