
     RDKit          3D

 17 18  0  0  0  0  0  0  0  0999 V2000
   -2.7219    1.5328   -0.3198 O   0  0  0  0  0  0  0  0  0  0  0  0
   -2.2234    0.4720    0.0981 C   0  0  0  0  0  0  0  0  0  0  0  0
   -0.9160    0.1649    0.0268 C   0  0  0  0  0  0  0  0  0  0  0  0
   -0.1630   -0.5864   -1.0268 C   0  0  0  0  0  0  0  0  0  0  0  0
    0.8951   -0.2156   -0.0391 C   0  0  0  0  0  0  0  0  0  0  0  0
    2.2133   -0.4922   -0.0713 C   0  0  0  0  0  0  0  0  0  0  0  0
    2.8384   -0.6280   -1.1292 O   0  0  0  0  0  0  0  0  0  0  0  0
    0.2373    1.1495    0.0063 C   0  0  0  0  0  0  0  0  0  0  0  0
   -0.0886   -0.5915    1.0357 C   0  0  0  0  0  0  0  0  0  0  0  0
   -2.9768   -0.1905    0.5351 H   0  0  0  0  0  0  0  0  0  0  0  0
   -0.0959   -0.0477   -1.9906 H   0  0  0  0  0  0  0  0  0  0  0  0
   -0.3703   -1.6630   -1.0982 H   0  0  0  0  0  0  0  0  0  0  0  0
    2.8270   -0.6171    0.8181 H   0  0  0  0  0  0  0  0  0  0  0  0
    0.4207    1.6745    0.9548 H   0  0  0  0  0  0  0  0  0  0  0  0
    0.3034    1.7332   -0.9162 H   0  0  0  0  0  0  0  0  0  0  0  0
   -0.2944   -1.6593    1.1421 H   0  0  0  0  0  0  0  0  0  0  0  0
    0.1152   -0.0355    1.9744 H   0  0  0  0  0  0  0  0  0  0  0  0
  1  2  2  0
  2  3  1  0
  3  4  1  0
  4  5  1  0
  5  6  1  0
  6  7  2  0
  5  8  1  0
  5  9  1  0
  8  3  1  0
  9  3  1  0
  2 10  1  0
  4 11  1  0
  4 12  1  0
  6 13  1  0
  8 14  1  0
  8 15  1  0
  9 16  1  0
  9 17  1  0
M  END
