
     RDKit          3D

 15 18  0  0  0  0  0  0  0  0999 V2000
    1.8950   -2.1357   -0.4729 O   0  0  0  0  0  0  0  0  0  0  0  0
    1.7712   -0.9641   -0.1448 C   0  0  0  0  0  0  0  0  0  0  0  0
    0.5301   -0.3041   -0.2366 C   0  0  0  0  0  0  0  0  0  0  0  0
    0.5374    1.1839    0.1827 C   0  0  0  0  0  0  0  0  0  0  0  0
   -0.7467    0.9354    0.8627 C   0  0  0  0  0  0  0  0  0  0  0  0
   -1.3169    0.6189   -0.4045 C   0  0  0  0  0  0  0  0  0  0  0  0
    0.0026    0.7223   -1.0611 C   0  0  0  0  0  0  0  0  0  0  0  0
   -0.6870   -0.4474    0.5347 C   0  0  0  0  0  0  0  0  0  0  0  0
   -1.3576   -1.5096    0.9223 O   0  0  0  0  0  0  0  0  0  0  0  0
    2.6687   -0.4762    0.2159 H   0  0  0  0  0  0  0  0  0  0  0  0
    1.3970    1.6737    0.4921 H   0  0  0  0  0  0  0  0  0  0  0  0
   -1.1351    1.4531    1.7063 H   0  0  0  0  0  0  0  0  0  0  0  0
   -2.2629    0.4684   -0.7971 H   0  0  0  0  0  0  0  0  0  0  0  0
    0.1947    1.0169   -2.0635 H   0  0  0  0  0  0  0  0  0  0  0  0
   -1.4904   -2.2355    0.2638 H   0  0  0  0  0  0  0  0  0  0  0  0
  1  2  2  0
  2  3  1  0
  3  4  1  0
  4  5  1  0
  5  6  1  0
  6  7  1  0
  6  8  1  0
  8  9  1  0
  7  3  1  0
  8  3  1  0
  7  4  1  0
  8  5  1  0
  2 10  1  0
  4 11  1  0
  5 12  1  0
  6 13  1  0
  7 14  1  0
  9 15  1  0
M  END
