
     RDKit          3D

 19 19  0  0  0  0  0  0  0  0999 V2000
   -2.5569   -2.0103    0.7569 O   0  0  0  0  0  0  0  0  0  0  0  0
   -1.5364   -1.3814    0.5771 C   0  0  0  0  0  0  0  0  0  0  0  0
   -1.5841    0.0924    0.4280 C   0  0  0  0  0  0  0  0  0  0  0  0
   -2.9139    0.5308    0.5306 O   0  0  0  0  0  0  0  0  0  0  0  0
   -1.0357    0.4652   -0.9291 C   0  0  0  0  0  0  0  0  0  0  0  0
    0.2565    0.0364   -1.0263 O   0  0  0  0  0  0  0  0  0  0  0  0
    1.1500    0.5408   -0.1285 C   0  0  0  0  0  0  0  0  0  0  0  0
    2.6104    0.5499   -0.3527 C   0  0  0  0  0  0  0  0  0  0  0  0
    2.0640   -0.5517    0.4868 C   0  0  0  0  0  0  0  0  0  0  0  0
   -0.6077   -1.9049    0.5284 H   0  0  0  0  0  0  0  0  0  0  0  0
   -1.0118    0.5233    1.2724 H   0  0  0  0  0  0  0  0  0  0  0  0
   -3.2678    0.7887   -0.3520 H   0  0  0  0  0  0  0  0  0  0  0  0
   -1.6476   -0.1032   -1.6729 H   0  0  0  0  0  0  0  0  0  0  0  0
   -1.1643    1.5478   -1.1447 H   0  0  0  0  0  0  0  0  0  0  0  0
    0.7524    1.2698    0.6150 H   0  0  0  0  0  0  0  0  0  0  0  0
    3.0469    0.2979   -1.3535 H   0  0  0  0  0  0  0  0  0  0  0  0
    3.1843    1.3569    0.1456 H   0  0  0  0  0  0  0  0  0  0  0  0
    2.1969   -0.5084    1.5870 H   0  0  0  0  0  0  0  0  0  0  0  0
    2.0648   -1.5399    0.0319 H   0  0  0  0  0  0  0  0  0  0  0  0
  1  2  2  0
  2  3  1  0
  3  4  1  0
  3  5  1  0
  5  6  1  0
  6  7  1  0
  7  8  1  0
  8  9  1  0
  9  7  1  0
  2 10  1  0
  3 11  1  0
  4 12  1  0
  5 13  1  0
  5 14  1  0
  7 15  1  0
  8 16  1  0
  8 17  1  0
  9 18  1  0
  9 19  1  0
M  END
