
     RDKit          3D

 17 19  0  0  0  0  0  0  0  0999 V2000
    3.0500   -1.2253    0.0926 O   0  0  0  0  0  0  0  0  0  0  0  0
    2.5113   -0.0835   -0.1179 C   0  0  0  0  0  0  0  0  0  0  0  0
    1.0767    0.0830   -0.1164 C   0  0  0  0  0  0  0  0  0  0  0  0
    0.1722   -0.8248    0.0823 C   0  0  0  0  0  0  0  0  0  0  0  0
   -1.0188   -1.6289    0.2635 C   0  0  0  0  0  0  0  0  0  0  0  0
   -1.5878   -0.2000    0.6987 C   0  0  0  0  0  0  0  0  0  0  0  0
   -1.0545    1.0661   -0.0093 C   0  0  0  0  0  0  0  0  0  0  0  0
    0.4015    1.4380   -0.1788 C   0  0  0  0  0  0  0  0  0  0  0  0
   -1.0733   -0.1194   -0.6605 C   0  0  0  0  0  0  0  0  0  0  0  0
    3.2071    0.7108   -0.2897 H   0  0  0  0  0  0  0  0  0  0  0  0
   -1.4888   -2.0051   -0.6279 H   0  0  0  0  0  0  0  0  0  0  0  0
   -1.0388   -2.3399    1.0987 H   0  0  0  0  0  0  0  0  0  0  0  0
   -1.1369   -0.0670    1.6764 H   0  0  0  0  0  0  0  0  0  0  0  0
   -1.7712    1.8897    0.1212 H   0  0  0  0  0  0  0  0  0  0  0  0
    0.5067    1.8654   -1.2065 H   0  0  0  0  0  0  0  0  0  0  0  0
    0.7710    2.1057    0.6097 H   0  0  0  0  0  0  0  0  0  0  0  0
   -1.5263   -0.6648   -1.4359 H   0  0  0  0  0  0  0  0  0  0  0  0
  1  2  2  0
  2  3  1  0
  3  4  2  0
  4  5  1  0
  5  6  1  0
  6  7  1  0
  7  8  1  0
  7  9  1  0
  8  3  1  0
  9  4  1  0
  9  6  1  0
  2 10  1  0
  5 11  1  0
  5 12  1  0
  6 13  1  0
  7 14  1  0
  8 15  1  0
  8 16  1  0
  9 17  1  0
M  END
