
     RDKit          3D

 17 18  0  0  0  0  0  0  0  0999 V2000
    3.6176   -0.1261    0.6042 O   0  0  0  0  0  0  0  0  0  0  0  0
    2.6499    0.0056   -0.1232 C   0  0  0  0  0  0  0  0  0  0  0  0
    1.2711   -0.1419    0.4142 C   0  0  0  0  0  0  0  0  0  0  0  0
    0.2628   -0.6349   -0.5499 C   0  0  0  0  0  0  0  0  0  0  0  0
   -1.0418   -1.2329   -0.0768 C   0  0  0  0  0  0  0  0  0  0  0  0
   -2.0624   -0.4152   -0.5614 O   0  0  0  0  0  0  0  0  0  0  0  0
   -2.0029    0.8751   -0.0731 C   0  0  0  0  0  0  0  0  0  0  0  0
   -0.8671    1.0218    0.7242 O   0  0  0  0  0  0  0  0  0  0  0  0
    0.2367    0.8339   -0.0774 C   0  0  0  0  0  0  0  0  0  0  0  0
    2.7983    0.2353   -1.1847 H   0  0  0  0  0  0  0  0  0  0  0  0
    1.2218   -0.3706    1.4828 H   0  0  0  0  0  0  0  0  0  0  0  0
    0.5672   -0.8405   -1.5688 H   0  0  0  0  0  0  0  0  0  0  0  0
   -1.2138   -2.2427   -0.5049 H   0  0  0  0  0  0  0  0  0  0  0  0
   -1.1254   -1.2252    1.0317 H   0  0  0  0  0  0  0  0  0  0  0  0
   -2.9376    1.0636    0.4919 H   0  0  0  0  0  0  0  0  0  0  0  0
   -1.8744    1.6243   -0.9084 H   0  0  0  0  0  0  0  0  0  0  0  0
    0.5000    1.5706   -0.8618 H   0  0  0  0  0  0  0  0  0  0  0  0
  1  2  2  0
  2  3  1  0
  3  4  1  0
  4  5  1  0
  5  6  1  0
  6  7  1  0
  7  8  1  0
  8  9  1  0
  9  3  1  0
  9  4  1  0
  2 10  1  0
  3 11  1  0
  4 12  1  0
  5 13  1  0
  5 14  1  0
  7 15  1  0
  7 16  1  0
  9 17  1  0
M  END
