
     RDKit          3D

 11 11  0  0  0  0  0  0  0  0999 V2000
    1.7525   -0.2373   -1.0806 O   0  0  0  0  0  0  0  0  0  0  0  0
    1.5962   -0.0839    0.1232 C   0  0  0  0  0  0  0  0  0  0  0  0
    0.1807    0.0113    0.5928 C   0  0  0  0  0  0  0  0  0  0  0  0
   -0.8670   -0.7114   -0.1778 C   0  0  0  0  0  0  0  0  0  0  0  0
   -0.8076    0.7701   -0.3047 C   0  0  0  0  0  0  0  0  0  0  0  0
    2.4065   -0.0185    0.8214 H   0  0  0  0  0  0  0  0  0  0  0  0
    0.0006    0.1499    1.6735 H   0  0  0  0  0  0  0  0  0  0  0  0
   -1.7579   -1.1338    0.3462 H   0  0  0  0  0  0  0  0  0  0  0  0
   -0.5552   -1.3547   -1.0362 H   0  0  0  0  0  0  0  0  0  0  0  0
   -1.6201    1.3472    0.2126 H   0  0  0  0  0  0  0  0  0  0  0  0
   -0.3287    1.2612   -1.1705 H   0  0  0  0  0  0  0  0  0  0  0  0
  1  2  2  0
  2  3  1  0
  3  4  1  0
  4  5  1  0
  5  3  1  0
  2  6  1  0
  3  7  1  0
  4  8  1  0
  4  9  1  0
  5 10  1  0
  5 11  1  0
M  END
