
     RDKit          3D

 15 15  0  0  0  0  0  0  0  0999 V2000
   -2.6457   -0.5611   -0.0615 O   0  0  0  0  0  0  0  0  0  0  0  0
   -1.5830   -1.1440   -0.1053 C   0  0  0  0  0  0  0  0  0  0  0  0
   -0.3847   -0.4322    0.3604 C   0  0  0  0  0  0  0  0  0  0  0  0
    0.8724   -1.1163   -0.0300 C   0  0  0  0  0  0  0  0  0  0  0  0
    1.0978   -2.2991   -0.3372 O   0  0  0  0  0  0  0  0  0  0  0  0
    1.8677   -0.0527    0.0199 C   0  0  0  0  0  0  0  0  0  0  0  0
    1.2725    1.1204   -0.1305 C   0  0  0  0  0  0  0  0  0  0  0  0
   -0.1788    0.9032   -0.2938 C   0  0  0  0  0  0  0  0  0  0  0  0
   -0.9417    1.9097    0.2673 O   0  0  0  0  0  0  0  0  0  0  0  0
   -1.5774   -2.1583   -0.4860 H   0  0  0  0  0  0  0  0  0  0  0  0
   -0.3436   -0.3501    1.4809 H   0  0  0  0  0  0  0  0  0  0  0  0
    2.9440   -0.2462    0.1627 H   0  0  0  0  0  0  0  0  0  0  0  0
    1.7617    2.1032   -0.1356 H   0  0  0  0  0  0  0  0  0  0  0  0
   -0.3628    0.7661   -1.3777 H   0  0  0  0  0  0  0  0  0  0  0  0
   -1.7985    1.5573    0.6664 H   0  0  0  0  0  0  0  0  0  0  0  0
  1  2  2  0
  2  3  1  0
  3  4  1  0
  4  5  2  0
  4  6  1  0
  6  7  2  0
  7  8  1  0
  8  9  1  0
  8  3  1  0
  2 10  1  0
  3 11  1  0
  6 12  1  0
  7 13  1  0
  8 14  1  0
  9 15  1  0
M  END
