
     RDKit          3D

 15 15  0  0  0  0  0  0  0  0999 V2000
    2.8618    0.8440   -0.6383 O   0  0  0  0  0  0  0  0  0  0  0  0
    2.1925    0.1947    0.1467 C   0  0  0  0  0  0  0  0  0  0  0  0
    0.7357    0.3111    0.2199 C   0  0  0  0  0  0  0  0  0  0  0  0
    0.0145   -0.9973   -0.0747 C   0  0  0  0  0  0  0  0  0  0  0  0
   -1.4424   -0.7497    0.2983 C   0  0  0  0  0  0  0  0  0  0  0  0
   -1.9244    0.4643   -0.1831 O   0  0  0  0  0  0  0  0  0  0  0  0
   -1.1423    1.4505   -0.7487 C   0  0  0  0  0  0  0  0  0  0  0  0
   -1.5806    2.4923   -1.2765 O   0  0  0  0  0  0  0  0  0  0  0  0
    0.2476    1.2525   -0.7204 O   0  0  0  0  0  0  0  0  0  0  0  0
    2.6946   -0.4992    0.8205 H   0  0  0  0  0  0  0  0  0  0  0  0
    0.4224    0.6613    1.2342 H   0  0  0  0  0  0  0  0  0  0  0  0
    0.0974   -1.2585   -1.1293 H   0  0  0  0  0  0  0  0  0  0  0  0
    0.3644   -1.8025    0.6083 H   0  0  0  0  0  0  0  0  0  0  0  0
   -2.0873   -1.6227    0.0178 H   0  0  0  0  0  0  0  0  0  0  0  0
   -1.4539   -0.7410    1.4255 H   0  0  0  0  0  0  0  0  0  0  0  0
  1  2  2  0
  2  3  1  0
  3  4  1  0
  4  5  1  0
  5  6  1  0
  6  7  1  0
  7  8  2  0
  7  9  1  0
  9  3  1  0
  2 10  1  0
  3 11  1  0
  4 12  1  0
  4 13  1  0
  5 14  1  0
  5 15  1  0
M  END
