
     RDKit          3D

 17 17  0  0  0  0  0  0  0  0999 V2000
    3.3475    0.6446    0.5118 O   0  0  0  0  0  0  0  0  0  0  0  0
    2.5063   -0.2713    0.6216 C   0  0  0  0  0  0  0  0  0  0  0  0
    1.1608   -0.1242    0.1059 C   0  0  0  0  0  0  0  0  0  0  0  0
    0.3799   -1.1675    0.2906 C   0  0  0  0  0  0  0  0  0  0  0  0
   -1.0162   -1.3501   -0.1025 C   0  0  0  0  0  0  0  0  0  0  0  0
   -1.9082   -0.1933    0.1263 C   0  0  0  0  0  0  0  0  0  0  0  0
   -1.6503    1.0765   -0.0943 C   0  0  0  0  0  0  0  0  0  0  0  0
   -0.3970    1.6647   -0.6273 C   0  0  0  0  0  0  0  0  0  0  0  0
    0.8247    1.1619   -0.5507 C   0  0  0  0  0  0  0  0  0  0  0  0
    2.7972   -1.1773    1.1079 H   0  0  0  0  0  0  0  0  0  0  0  0
    0.8075   -2.0412    0.8105 H   0  0  0  0  0  0  0  0  0  0  0  0
   -1.4808   -2.2320    0.4264 H   0  0  0  0  0  0  0  0  0  0  0  0
   -1.1047   -1.6168   -1.1985 H   0  0  0  0  0  0  0  0  0  0  0  0
   -2.9144   -0.4343    0.5324 H   0  0  0  0  0  0  0  0  0  0  0  0
   -2.4616    1.7542    0.1450 H   0  0  0  0  0  0  0  0  0  0  0  0
   -0.5182    2.6140   -1.1310 H   0  0  0  0  0  0  0  0  0  0  0  0
    1.6276    1.6921   -0.9741 H   0  0  0  0  0  0  0  0  0  0  0  0
  1  2  2  0
  2  3  1  0
  3  4  2  0
  4  5  1  0
  5  6  1  0
  6  7  2  0
  7  8  1  0
  8  9  2  0
  9  3  1  0
  2 10  1  0
  4 11  1  0
  5 12  1  0
  5 13  1  0
  6 14  1  0
  7 15  1  0
  8 16  1  0
  9 17  1  0
M  END
