
     RDKit          3D

 12 12  0  0  0  0  0  0  0  0999 V2000
    2.3815    0.0978    0.7775 O   0  0  0  0  0  0  0  0  0  0  0  0
    1.9955    0.5321   -0.2935 C   0  0  0  0  0  0  0  0  0  0  0  0
    0.6957    0.0119   -0.8015 C   0  0  0  0  0  0  0  0  0  0  0  0
    0.1268   -0.9071    0.0564 O   0  0  0  0  0  0  0  0  0  0  0  0
   -1.2348   -0.8471   -0.2576 C   0  0  0  0  0  0  0  0  0  0  0  0
   -1.4216    0.6268   -0.3641 C   0  0  0  0  0  0  0  0  0  0  0  0
   -2.4518    1.2672   -0.0337 O   0  0  0  0  0  0  0  0  0  0  0  0
   -0.2226    1.0903   -0.8968 O   0  0  0  0  0  0  0  0  0  0  0  0
    2.5860    1.2605   -0.8316 H   0  0  0  0  0  0  0  0  0  0  0  0
    0.8319   -0.5047   -1.7867 H   0  0  0  0  0  0  0  0  0  0  0  0
   -1.4215   -1.3601   -1.2344 H   0  0  0  0  0  0  0  0  0  0  0  0
   -1.8651   -1.2676    0.5464 H   0  0  0  0  0  0  0  0  0  0  0  0
  1  2  2  0
  2  3  1  0
  3  4  1  0
  4  5  1  0
  5  6  1  0
  6  7  2  0
  6  8  1  0
  8  3  1  0
  2  9  1  0
  3 10  1  0
  5 11  1  0
  5 12  1  0
M  END
