
     RDKit          3D

 18 18  0  0  0  0  0  0  0  0999 V2000
    1.6219   -1.9386   -1.2919 O   0  0  0  0  0  0  0  0  0  0  0  0
    0.6114   -1.3930   -0.9113 C   0  0  0  0  0  0  0  0  0  0  0  0
    0.7099   -0.3551    0.1200 C   0  0  0  0  0  0  0  0  0  0  0  0
    1.5361    0.7871   -0.4228 C   0  0  0  0  0  0  0  0  0  0  0  0
    1.6380    1.7931    0.5619 O   0  0  0  0  0  0  0  0  0  0  0  0
   -0.5988    0.0778    0.6961 C   0  0  0  0  0  0  0  0  0  0  0  0
   -1.6674    0.6683   -0.1444 C   0  0  0  0  0  0  0  0  0  0  0  0
   -1.8475   -0.6683    0.5207 C   0  0  0  0  0  0  0  0  0  0  0  0
   -0.3261   -1.6870   -1.3416 H   0  0  0  0  0  0  0  0  0  0  0  0
    1.3125   -0.7913    0.9678 H   0  0  0  0  0  0  0  0  0  0  0  0
    2.5559    0.3845   -0.5996 H   0  0  0  0  0  0  0  0  0  0  0  0
    1.1444    1.1873   -1.3646 H   0  0  0  0  0  0  0  0  0  0  0  0
    2.1499    1.3498    1.3118 H   0  0  0  0  0  0  0  0  0  0  0  0
   -0.4841    0.5826    1.7015 H   0  0  0  0  0  0  0  0  0  0  0  0
   -1.5087    0.7082   -1.2476 H   0  0  0  0  0  0  0  0  0  0  0  0
   -2.2729    1.4980    0.2368 H   0  0  0  0  0  0  0  0  0  0  0  0
   -1.9815   -1.5107   -0.1627 H   0  0  0  0  0  0  0  0  0  0  0  0
   -2.5931   -0.6926    1.3699 H   0  0  0  0  0  0  0  0  0  0  0  0
  1  2  2  0
  2  3  1  0
  3  4  1  0
  4  5  1  0
  3  6  1  0
  6  7  1  0
  7  8  1  0
  8  6  1  0
  2  9  1  0
  3 10  1  0
  4 11  1  0
  4 12  1  0
  5 13  1  0
  6 14  1  0
  7 15  1  0
  7 16  1  0
  8 17  1  0
  8 18  1  0
M  END
