
     RDKit          3D

 17 18  0  0  0  0  0  0  0  0999 V2000
   -2.8810    0.4751   -0.7881 O   0  0  0  0  0  0  0  0  0  0  0  0
   -2.0515    1.1864   -0.2728 C   0  0  0  0  0  0  0  0  0  0  0  0
   -0.7419    0.6476    0.1506 C   0  0  0  0  0  0  0  0  0  0  0  0
   -0.6981   -0.7306    0.7743 C   0  0  0  0  0  0  0  0  0  0  0  0
    0.3645   -1.4333   -0.0257 C   0  0  0  0  0  0  0  0  0  0  0  0
    1.3449   -0.3314   -0.3368 C   0  0  0  0  0  0  0  0  0  0  0  0
    2.2378   -0.1018    0.7089 O   0  0  0  0  0  0  0  0  0  0  0  0
    0.4510    0.8599   -0.5134 C   0  0  0  0  0  0  0  0  0  0  0  0
    0.1673    1.5407    0.7419 O   0  0  0  0  0  0  0  0  0  0  0  0
   -2.2668    2.2276   -0.1188 H   0  0  0  0  0  0  0  0  0  0  0  0
   -0.4705   -0.6256    1.8367 H   0  0  0  0  0  0  0  0  0  0  0  0
   -1.6945   -1.2044    0.5734 H   0  0  0  0  0  0  0  0  0  0  0  0
   -0.0851   -1.7701   -0.9900 H   0  0  0  0  0  0  0  0  0  0  0  0
    0.7932   -2.2733    0.5224 H   0  0  0  0  0  0  0  0  0  0  0  0
    1.9282   -0.5184   -1.2595 H   0  0  0  0  0  0  0  0  0  0  0  0
    2.9175    0.5256    0.3512 H   0  0  0  0  0  0  0  0  0  0  0  0
    0.6852    1.5261   -1.3540 H   0  0  0  0  0  0  0  0  0  0  0  0
  1  2  2  0
  2  3  1  0
  3  4  1  0
  4  5  1  0
  5  6  1  0
  6  7  1  0
  6  8  1  0
  8  9  1  0
  8  3  1  0
  9  3  1  0
  2 10  1  0
  4 11  1  0
  4 12  1  0
  5 13  1  0
  5 14  1  0
  6 15  1  0
  7 16  1  0
  8 17  1  0
M  END
