
     RDKit          3D

 21 22  0  0  0  0  0  0  0  0999 V2000
    0.2543   -2.5407   -1.0899 O   0  0  0  0  0  0  0  0  0  0  0  0
   -0.5236   -1.6414   -0.8223 C   0  0  0  0  0  0  0  0  0  0  0  0
   -0.1210   -0.2148   -0.6670 C   0  0  0  0  0  0  0  0  0  0  0  0
   -0.7863    0.4307    0.5303 C   0  0  0  0  0  0  0  0  0  0  0  0
   -2.3307    0.4538    0.5044 C   0  0  0  0  0  0  0  0  0  0  0  0
   -1.6139   -0.4327    1.4525 C   0  0  0  0  0  0  0  0  0  0  0  0
    1.3501   -0.0226   -0.7041 C   0  0  0  0  0  0  0  0  0  0  0  0
    2.0384    1.2482   -0.5793 C   0  0  0  0  0  0  0  0  0  0  0  0
    2.1046    0.2527    0.5854 C   0  0  0  0  0  0  0  0  0  0  0  0
   -1.5639   -1.9182   -0.6941 H   0  0  0  0  0  0  0  0  0  0  0  0
   -0.5562    0.3123   -1.5667 H   0  0  0  0  0  0  0  0  0  0  0  0
   -0.3398    1.2987    1.0068 H   0  0  0  0  0  0  0  0  0  0  0  0
   -2.8227    1.3881    0.8458 H   0  0  0  0  0  0  0  0  0  0  0  0
   -2.7947   -0.0228   -0.3779 H   0  0  0  0  0  0  0  0  0  0  0  0
   -1.6260   -1.5179    1.3051 H   0  0  0  0  0  0  0  0  0  0  0  0
   -1.6942   -0.1378    2.5228 H   0  0  0  0  0  0  0  0  0  0  0  0
    1.8834   -0.8037   -1.3254 H   0  0  0  0  0  0  0  0  0  0  0  0
    3.0038    1.4083   -1.1458 H   0  0  0  0  0  0  0  0  0  0  0  0
    1.5779    2.2011   -0.2935 H   0  0  0  0  0  0  0  0  0  0  0  0
    3.0895   -0.1893    0.7581 H   0  0  0  0  0  0  0  0  0  0  0  0
    1.4713    0.4479    1.4726 H   0  0  0  0  0  0  0  0  0  0  0  0
  1  2  2  0
  2  3  1  0
  3  4  1  0
  4  5  1  0
  5  6  1  0
  3  7  1  0
  7  8  1  0
  8  9  1  0
  6  4  1  0
  9  7  1  0
  2 10  1  0
  3 11  1  0
  4 12  1  0
  5 13  1  0
  5 14  1  0
  6 15  1  0
  6 16  1  0
  7 17  1  0
  8 18  1  0
  8 19  1  0
  9 20  1  0
  9 21  1  0
M  END
