
     RDKit          3D

 18 18  0  0  0  0  0  0  0  0999 V2000
    3.1945    0.9127    0.2240 O   0  0  0  0  0  0  0  0  0  0  0  0
    2.8885   -0.1833   -0.2235 C   0  0  0  0  0  0  0  0  0  0  0  0
    1.4969   -0.6621   -0.3150 C   0  0  0  0  0  0  0  0  0  0  0  0
    0.5167    0.3652    0.2091 C   0  0  0  0  0  0  0  0  0  0  0  0
   -0.9060   -0.1165    0.1185 C   0  0  0  0  0  0  0  0  0  0  0  0
   -1.2065   -1.2925    0.8334 O   0  0  0  0  0  0  0  0  0  0  0  0
   -1.7716    0.2184   -1.0230 C   0  0  0  0  0  0  0  0  0  0  0  0
   -1.9220    1.0171    0.2404 C   0  0  0  0  0  0  0  0  0  0  0  0
    3.6736   -0.8429   -0.5729 H   0  0  0  0  0  0  0  0  0  0  0  0
    1.4382   -1.6135    0.2509 H   0  0  0  0  0  0  0  0  0  0  0  0
    1.2344   -0.9104   -1.3759 H   0  0  0  0  0  0  0  0  0  0  0  0
    0.7354    0.4801    1.3119 H   0  0  0  0  0  0  0  0  0  0  0  0
    0.6402    1.3424   -0.2518 H   0  0  0  0  0  0  0  0  0  0  0  0
   -1.6841   -1.8785    0.1930 H   0  0  0  0  0  0  0  0  0  0  0  0
   -1.3836    0.7413   -1.9208 H   0  0  0  0  0  0  0  0  0  0  0  0
   -2.6293   -0.4670   -1.2222 H   0  0  0  0  0  0  0  0  0  0  0  0
   -1.5714    2.0584    0.1984 H   0  0  0  0  0  0  0  0  0  0  0  0
   -2.7439    0.8310    0.9400 H   0  0  0  0  0  0  0  0  0  0  0  0
  1  2  2  0
  2  3  1  0
  3  4  1  0
  4  5  1  0
  5  6  1  0
  5  7  1  0
  7  8  1  0
  8  5  1  0
  2  9  1  0
  3 10  1  0
  3 11  1  0
  4 12  1  0
  4 13  1  0
  6 14  1  0
  7 15  1  0
  7 16  1  0
  8 17  1  0
  8 18  1  0
M  END
