
     RDKit          3D

 14 14  0  0  0  0  0  0  0  0999 V2000
    1.5822   -0.1455    1.5484 O   0  0  0  0  0  0  0  0  0  0  0  0
    1.9702    0.4461    0.5171 C   0  0  0  0  0  0  0  0  0  0  0  0
    1.1789    0.5525   -0.6951 C   0  0  0  0  0  0  0  0  0  0  0  0
    1.6645    1.1639   -1.6784 O   0  0  0  0  0  0  0  0  0  0  0  0
   -0.1754   -0.0233   -0.8372 C   0  0  0  0  0  0  0  0  0  0  0  0
   -0.5589   -1.2438   -0.0855 C   0  0  0  0  0  0  0  0  0  0  0  0
   -1.0915    0.0684    0.3992 C   0  0  0  0  0  0  0  0  0  0  0  0
   -2.3929    0.4393    0.0697 O   0  0  0  0  0  0  0  0  0  0  0  0
    2.9692    0.8888    0.5904 H   0  0  0  0  0  0  0  0  0  0  0  0
   -0.6588    0.1136   -1.8250 H   0  0  0  0  0  0  0  0  0  0  0  0
   -1.2586   -1.9719   -0.5756 H   0  0  0  0  0  0  0  0  0  0  0  0
    0.2394   -1.7459    0.4838 H   0  0  0  0  0  0  0  0  0  0  0  0
   -0.6407    0.4765    1.3228 H   0  0  0  0  0  0  0  0  0  0  0  0
   -2.8275    0.9813    0.7655 H   0  0  0  0  0  0  0  0  0  0  0  0
  1  2  2  0
  2  3  1  0
  3  4  2  0
  3  5  1  0
  5  6  1  0
  6  7  1  0
  7  8  1  0
  7  5  1  0
  2  9  1  0
  5 10  1  0
  6 11  1  0
  6 12  1  0
  7 13  1  0
  8 14  1  0
M  END
