
     RDKit          3D

 15 17  0  0  0  0  0  0  0  0999 V2000
    3.1340   -0.2835   -0.1075 O   0  0  0  0  0  0  0  0  0  0  0  0
    2.0903   -0.1821   -0.7188 C   0  0  0  0  0  0  0  0  0  0  0  0
    0.8440    0.1188    0.0290 C   0  0  0  0  0  0  0  0  0  0  0  0
    0.9743    0.2623    1.3890 O   0  0  0  0  0  0  0  0  0  0  0  0
    0.1494   -0.7886    0.8538 C   0  0  0  0  0  0  0  0  0  0  0  0
   -1.3004   -0.3964    0.8637 C   0  0  0  0  0  0  0  0  0  0  0  0
   -1.4788    0.4717   -0.3741 C   0  0  0  0  0  0  0  0  0  0  0  0
   -0.9761    0.0222   -1.5819 O   0  0  0  0  0  0  0  0  0  0  0  0
   -0.1935    0.9401   -0.7093 C   0  0  0  0  0  0  0  0  0  0  0  0
    2.1205   -0.3180   -1.7940 H   0  0  0  0  0  0  0  0  0  0  0  0
    0.4684   -1.7806    1.2090 H   0  0  0  0  0  0  0  0  0  0  0  0
   -1.5331    0.2939    1.7265 H   0  0  0  0  0  0  0  0  0  0  0  0
   -1.9949   -1.2486    0.8808 H   0  0  0  0  0  0  0  0  0  0  0  0
   -2.4098    1.0373   -0.4237 H   0  0  0  0  0  0  0  0  0  0  0  0
    0.1058    1.8517   -1.2427 H   0  0  0  0  0  0  0  0  0  0  0  0
  1  2  2  0
  2  3  1  0
  3  4  1  0
  4  5  1  0
  5  6  1  0
  6  7  1  0
  7  8  1  0
  8  9  1  0
  5  3  1  0
  9  7  1  0
  9  3  1  0
  2 10  1  0
  5 11  1  0
  6 12  1  0
  6 13  1  0
  7 14  1  0
  9 15  1  0
M  END
