
     RDKit          3D

 15 16  0  0  0  0  0  0  0  0999 V2000
    2.2122    1.7530   -0.9565 O   0  0  0  0  0  0  0  0  0  0  0  0
    1.7693    1.1706    0.0073 C   0  0  0  0  0  0  0  0  0  0  0  0
    0.6906    0.2469   -0.0966 C   0  0  0  0  0  0  0  0  0  0  0  0
    0.7018   -1.1093    0.5917 C   0  0  0  0  0  0  0  0  0  0  0  0
   -0.7486   -1.2515    0.1650 C   0  0  0  0  0  0  0  0  0  0  0  0
   -0.5915    0.1567   -0.4309 C   0  0  0  0  0  0  0  0  0  0  0  0
   -1.7732    0.9928   -0.3492 C   0  0  0  0  0  0  0  0  0  0  0  0
   -2.4834    0.9709    0.6378 O   0  0  0  0  0  0  0  0  0  0  0  0
    0.2415    0.1392   -1.5114 O   0  0  0  0  0  0  0  0  0  0  0  0
    2.2543    1.4022    0.9648 H   0  0  0  0  0  0  0  0  0  0  0  0
    1.3964   -1.8348    0.1431 H   0  0  0  0  0  0  0  0  0  0  0  0
    0.7670   -0.9613    1.6781 H   0  0  0  0  0  0  0  0  0  0  0  0
   -0.8978   -2.0035   -0.6576 H   0  0  0  0  0  0  0  0  0  0  0  0
   -1.4797   -1.3289    0.9696 H   0  0  0  0  0  0  0  0  0  0  0  0
   -2.0590    1.6568   -1.1551 H   0  0  0  0  0  0  0  0  0  0  0  0
  1  2  2  0
  2  3  1  0
  3  4  1  0
  4  5  1  0
  5  6  1  0
  6  7  1  0
  7  8  2  0
  6  9  1  0
  6  3  1  0
  9  3  1  0
  2 10  1  0
  4 11  1  0
  4 12  1  0
  5 13  1  0
  5 14  1  0
  7 15  1  0
M  END
