
     RDKit          3D

 21 21  0  0  0  0  0  0  0  0999 V2000
    2.5883    2.4005   -0.3695 O   0  0  0  0  0  0  0  0  0  0  0  0
    2.8589    1.2573   -0.0675 C   0  0  0  0  0  0  0  0  0  0  0  0
    1.7688    0.3831    0.4350 C   0  0  0  0  0  0  0  0  0  0  0  0
    0.9401   -0.1121   -0.7441 C   0  0  0  0  0  0  0  0  0  0  0  0
   -0.1836   -1.0076   -0.2531 C   0  0  0  0  0  0  0  0  0  0  0  0
   -0.8916   -1.4169   -1.3841 O   0  0  0  0  0  0  0  0  0  0  0  0
   -1.0814   -0.3379    0.7193 C   0  0  0  0  0  0  0  0  0  0  0  0
   -1.8570    0.8771    0.4118 C   0  0  0  0  0  0  0  0  0  0  0  0
   -2.5882   -0.4341    0.3922 C   0  0  0  0  0  0  0  0  0  0  0  0
    3.8786    0.9186   -0.1747 H   0  0  0  0  0  0  0  0  0  0  0  0
    2.2209   -0.4539    1.0042 H   0  0  0  0  0  0  0  0  0  0  0  0
    1.1570    0.9944    1.1260 H   0  0  0  0  0  0  0  0  0  0  0  0
    0.5380    0.7877   -1.2535 H   0  0  0  0  0  0  0  0  0  0  0  0
    1.6416   -0.6955   -1.3767 H   0  0  0  0  0  0  0  0  0  0  0  0
    0.2712   -1.9021    0.2125 H   0  0  0  0  0  0  0  0  0  0  0  0
   -0.4687   -2.1877   -1.8199 H   0  0  0  0  0  0  0  0  0  0  0  0
   -0.8318   -0.5378    1.8026 H   0  0  0  0  0  0  0  0  0  0  0  0
   -1.7260    1.4401   -0.5315 H   0  0  0  0  0  0  0  0  0  0  0  0
   -2.1168    1.5227    1.2750 H   0  0  0  0  0  0  0  0  0  0  0  0
   -2.8499   -0.7862   -0.6300 H   0  0  0  0  0  0  0  0  0  0  0  0
   -3.2684   -0.7098    1.2261 H   0  0  0  0  0  0  0  0  0  0  0  0
  1  2  2  0
  2  3  1  0
  3  4  1  0
  4  5  1  0
  5  6  1  0
  5  7  1  0
  7  8  1  0
  8  9  1  0
  9  7  1  0
  2 10  1  0
  3 11  1  0
  3 12  1  0
  4 13  1  0
  4 14  1  0
  5 15  1  0
  6 16  1  0
  7 17  1  0
  8 18  1  0
  8 19  1  0
  9 20  1  0
  9 21  1  0
M  END
