
     RDKit          3D

 15 16  0  0  0  0  0  0  0  0999 V2000
    0.9963    2.5703   -0.7434 O   0  0  0  0  0  0  0  0  0  0  0  0
    0.9317    1.3753   -0.8255 C   0  0  0  0  0  0  0  0  0  0  0  0
    0.1010    0.6181    0.1167 C   0  0  0  0  0  0  0  0  0  0  0  0
   -1.3574    0.7689    0.1528 C   0  0  0  0  0  0  0  0  0  0  0  0
   -2.1156    1.7227    0.1915 O   0  0  0  0  0  0  0  0  0  0  0  0
   -1.6196   -0.6976    0.1255 C   0  0  0  0  0  0  0  0  0  0  0  0
   -0.1271   -0.8780   -0.1775 C   0  0  0  0  0  0  0  0  0  0  0  0
    0.7707   -0.4531    0.9024 C   0  0  0  0  0  0  0  0  0  0  0  0
    2.1230   -0.6462    0.6991 O   0  0  0  0  0  0  0  0  0  0  0  0
    1.4988    0.8877   -1.6058 H   0  0  0  0  0  0  0  0  0  0  0  0
   -2.2934   -1.0530   -0.6572 H   0  0  0  0  0  0  0  0  0  0  0  0
   -1.8190   -1.1253    1.1481 H   0  0  0  0  0  0  0  0  0  0  0  0
    0.1835   -1.1691   -1.1749 H   0  0  0  0  0  0  0  0  0  0  0  0
    0.4435   -0.6697    1.9411 H   0  0  0  0  0  0  0  0  0  0  0  0
    2.2835   -1.2510   -0.0929 H   0  0  0  0  0  0  0  0  0  0  0  0
  1  2  2  0
  2  3  1  0
  3  4  1  0
  4  5  2  0
  4  6  1  0
  6  7  1  0
  7  8  1  0
  8  9  1  0
  7  3  1  0
  8  3  1  0
  2 10  1  0
  6 11  1  0
  6 12  1  0
  7 13  1  0
  8 14  1  0
  9 15  1  0
M  END
