
     RDKit          3D

 19 20  0  0  0  0  0  0  0  0999 V2000
    3.0057    0.8314    0.6292 O   0  0  0  0  0  0  0  0  0  0  0  0
    1.8133    1.0400    0.7156 C   0  0  0  0  0  0  0  0  0  0  0  0
    0.8963    0.6222   -0.3749 C   0  0  0  0  0  0  0  0  0  0  0  0
   -0.4346    1.3127   -0.2073 C   0  0  0  0  0  0  0  0  0  0  0  0
   -1.4752    0.2411   -0.1685 C   0  0  0  0  0  0  0  0  0  0  0  0
   -1.4416   -0.6357    1.0719 C   0  0  0  0  0  0  0  0  0  0  0  0
   -0.8266   -1.0748   -0.1986 C   0  0  0  0  0  0  0  0  0  0  0  0
    0.6360   -0.8569   -0.3744 C   0  0  0  0  0  0  0  0  0  0  0  0
    1.0867   -1.3750   -1.5708 O   0  0  0  0  0  0  0  0  0  0  0  0
    1.4259    1.5272    1.5828 H   0  0  0  0  0  0  0  0  0  0  0  0
    1.3328    0.9868   -1.3224 H   0  0  0  0  0  0  0  0  0  0  0  0
   -0.6724    1.9993   -1.0294 H   0  0  0  0  0  0  0  0  0  0  0  0
   -0.4685    1.8943    0.7348 H   0  0  0  0  0  0  0  0  0  0  0  0
   -2.3932    0.3691   -0.7336 H   0  0  0  0  0  0  0  0  0  0  0  0
   -2.4602   -0.9915    1.3665 H   0  0  0  0  0  0  0  0  0  0  0  0
   -0.7605   -0.3396    1.9043 H   0  0  0  0  0  0  0  0  0  0  0  0
   -1.2359   -1.9377   -0.7654 H   0  0  0  0  0  0  0  0  0  0  0  0
    1.1637   -1.3231    0.4953 H   0  0  0  0  0  0  0  0  0  0  0  0
    0.8083   -2.2896   -1.7551 H   0  0  0  0  0  0  0  0  0  0  0  0
  1  2  2  0
  2  3  1  0
  3  4  1  0
  4  5  1  0
  5  6  1  0
  6  7  1  0
  7  8  1  0
  8  9  1  0
  8  3  1  0
  7  5  1  0
  2 10  1  0
  3 11  1  0
  4 12  1  0
  4 13  1  0
  5 14  1  0
  6 15  1  0
  6 16  1  0
  7 17  1  0
  8 18  1  0
  9 19  1  0
M  END
