
     RDKit          3D

 19 20  0  0  0  0  0  0  0  0999 V2000
    2.0380    1.5188   -0.9686 O   0  0  0  0  0  0  0  0  0  0  0  0
    2.1648    0.4031   -0.4441 C   0  0  0  0  0  0  0  0  0  0  0  0
    1.1767   -0.0045    0.5940 C   0  0  0  0  0  0  0  0  0  0  0  0
    1.5676   -1.3012    1.0043 O   0  0  0  0  0  0  0  0  0  0  0  0
   -0.1125    0.0464    0.1634 C   0  0  0  0  0  0  0  0  0  0  0  0
   -0.7259   -0.7164   -0.9874 C   0  0  0  0  0  0  0  0  0  0  0  0
   -1.8866    0.0250   -0.3953 C   0  0  0  0  0  0  0  0  0  0  0  0
   -1.3477   -0.4063    0.9399 C   0  0  0  0  0  0  0  0  0  0  0  0
   -0.9389    1.1982   -0.2709 C   0  0  0  0  0  0  0  0  0  0  0  0
    2.9913   -0.2165   -0.7716 H   0  0  0  0  0  0  0  0  0  0  0  0
    1.3928    0.6380    1.4805 H   0  0  0  0  0  0  0  0  0  0  0  0
    2.5313   -1.3695    0.9272 H   0  0  0  0  0  0  0  0  0  0  0  0
   -0.7035   -1.7965   -0.7803 H   0  0  0  0  0  0  0  0  0  0  0  0
   -0.4066   -0.4101   -1.9894 H   0  0  0  0  0  0  0  0  0  0  0  0
   -2.8367    0.0479   -0.7016 H   0  0  0  0  0  0  0  0  0  0  0  0
   -1.3394   -1.4880    1.1408 H   0  0  0  0  0  0  0  0  0  0  0  0
   -1.6483    0.2626    1.7500 H   0  0  0  0  0  0  0  0  0  0  0  0
   -0.6668    1.6859   -1.2330 H   0  0  0  0  0  0  0  0  0  0  0  0
   -1.2497    1.8831    0.5424 H   0  0  0  0  0  0  0  0  0  0  0  0
  1  2  2  0
  2  3  1  0
  3  4  1  0
  3  5  1  0
  5  6  1  0
  6  7  1  0
  7  8  1  0
  7  9  1  0
  8  5  1  0
  9  5  1  0
  2 10  1  0
  3 11  1  0
  4 12  1  0
  6 13  1  0
  6 14  1  0
  7 15  1  0
  8 16  1  0
  8 17  1  0
  9 18  1  0
  9 19  1  0
M  END
