
     RDKit          3D

 19 19  0  0  0  0  0  0  0  0999 V2000
   -2.4119   -1.9305    0.1745 O   0  0  0  0  0  0  0  0  0  0  0  0
   -1.6401   -1.1955    0.7463 C   0  0  0  0  0  0  0  0  0  0  0  0
   -0.9064   -0.1752   -0.0066 C   0  0  0  0  0  0  0  0  0  0  0  0
   -1.1707   -0.1372   -1.3704 O   0  0  0  0  0  0  0  0  0  0  0  0
   -1.0294    1.2518    0.5492 C   0  0  0  0  0  0  0  0  0  0  0  0
    0.3956    1.4348    0.0110 C   0  0  0  0  0  0  0  0  0  0  0  0
    0.5551   -0.0530    0.3502 C   0  0  0  0  0  0  0  0  0  0  0  0
    1.5175   -0.7440   -0.5592 C   0  0  0  0  0  0  0  0  0  0  0  0
    2.8016   -0.5024   -0.0465 O   0  0  0  0  0  0  0  0  0  0  0  0
   -1.4717   -1.2687    1.8134 H   0  0  0  0  0  0  0  0  0  0  0  0
   -2.1515   -0.1244   -1.4866 H   0  0  0  0  0  0  0  0  0  0  0  0
   -1.7880    1.8627    0.0463 H   0  0  0  0  0  0  0  0  0  0  0  0
   -1.0748    1.2090    1.6517 H   0  0  0  0  0  0  0  0  0  0  0  0
    1.0340    2.0855    0.6055 H   0  0  0  0  0  0  0  0  0  0  0  0
    0.3806    1.5841   -1.0801 H   0  0  0  0  0  0  0  0  0  0  0  0
    0.6904   -0.1821    1.4305 H   0  0  0  0  0  0  0  0  0  0  0  0
    1.4785   -0.2657   -1.5549 H   0  0  0  0  0  0  0  0  0  0  0  0
    1.3698   -1.8257   -0.6453 H   0  0  0  0  0  0  0  0  0  0  0  0
    3.4213   -1.0234   -0.6289 H   0  0  0  0  0  0  0  0  0  0  0  0
  1  2  2  0
  2  3  1  0
  3  4  1  0
  3  5  1  0
  5  6  1  0
  6  7  1  0
  7  8  1  0
  8  9  1  0
  7  3  1  0
  2 10  1  0
  4 11  1  0
  5 12  1  0
  5 13  1  0
  6 14  1  0
  6 15  1  0
  7 16  1  0
  8 17  1  0
  8 18  1  0
  9 19  1  0
M  END
