
     RDKit          3D

 14 15  0  0  0  0  0  0  0  0999 V2000
    2.0560    1.2923    0.9895 O   0  0  0  0  0  0  0  0  0  0  0  0
    1.5807    1.0395   -0.0996 C   0  0  0  0  0  0  0  0  0  0  0  0
    0.6811   -0.1334   -0.2555 C   0  0  0  0  0  0  0  0  0  0  0  0
    0.4212   -1.0429    0.8853 C   0  0  0  0  0  0  0  0  0  0  0  0
   -0.6478   -0.1847    0.3586 C   0  0  0  0  0  0  0  0  0  0  0  0
   -1.1983    0.8479    1.0791 O   0  0  0  0  0  0  0  0  0  0  0  0
   -1.1761   -0.5241   -1.0103 C   0  0  0  0  0  0  0  0  0  0  0  0
    0.1406   -0.4250   -1.4831 O   0  0  0  0  0  0  0  0  0  0  0  0
    1.7740    1.6288   -0.9912 H   0  0  0  0  0  0  0  0  0  0  0  0
    0.8505   -0.7194    1.8734 H   0  0  0  0  0  0  0  0  0  0  0  0
    0.4437   -2.1335    0.6421 H   0  0  0  0  0  0  0  0  0  0  0  0
   -1.4600    1.6211    0.5328 H   0  0  0  0  0  0  0  0  0  0  0  0
   -1.8449    0.2484   -1.4495 H   0  0  0  0  0  0  0  0  0  0  0  0
   -1.6208   -1.5150   -1.0717 H   0  0  0  0  0  0  0  0  0  0  0  0
  1  2  2  0
  2  3  1  0
  3  4  1  0
  4  5  1  0
  5  6  1  0
  5  7  1  0
  7  8  1  0
  5  3  1  0
  8  3  1  0
  2  9  1  0
  4 10  1  0
  4 11  1  0
  6 12  1  0
  7 13  1  0
  7 14  1  0
M  END
