
     RDKit          3D

 17 17  0  0  0  0  0  0  0  0999 V2000
    2.4079    1.1917    1.0498 O   0  0  0  0  0  0  0  0  0  0  0  0
    2.6897    0.3900    0.1283 C   0  0  0  0  0  0  0  0  0  0  0  0
    1.7159   -0.6068   -0.2597 C   0  0  0  0  0  0  0  0  0  0  0  0
    1.9880   -1.4051   -1.1736 O   0  0  0  0  0  0  0  0  0  0  0  0
    0.4216   -0.6742    0.4177 C   0  0  0  0  0  0  0  0  0  0  0  0
   -0.7422   -0.3533   -0.4891 C   0  0  0  0  0  0  0  0  0  0  0  0
   -2.0661   -0.4196    0.2235 C   0  0  0  0  0  0  0  0  0  0  0  0
   -1.6454    0.7435    0.9157 O   0  0  0  0  0  0  0  0  0  0  0  0
   -1.0905    1.1310   -0.3257 C   0  0  0  0  0  0  0  0  0  0  0  0
    3.6614    0.4872   -0.3348 H   0  0  0  0  0  0  0  0  0  0  0  0
    0.2137   -1.6882    0.8541 H   0  0  0  0  0  0  0  0  0  0  0  0
    0.4250    0.0162    1.2820 H   0  0  0  0  0  0  0  0  0  0  0  0
   -0.7340   -0.7127   -1.5064 H   0  0  0  0  0  0  0  0  0  0  0  0
   -2.2476   -1.2843    0.8557 H   0  0  0  0  0  0  0  0  0  0  0  0
   -2.9049   -0.1051   -0.4595 H   0  0  0  0  0  0  0  0  0  0  0  0
   -0.2155    1.7822   -0.1915 H   0  0  0  0  0  0  0  0  0  0  0  0
   -1.8770    1.5074   -0.9864 H   0  0  0  0  0  0  0  0  0  0  0  0
  1  2  2  0
  2  3  1  0
  3  4  2  0
  3  5  1  0
  5  6  1  0
  6  7  1  0
  7  8  1  0
  8  9  1  0
  9  6  1  0
  2 10  1  0
  5 11  1  0
  5 12  1  0
  6 13  1  0
  7 14  1  0
  7 15  1  0
  9 16  1  0
  9 17  1  0
M  END
