
     RDKit          3D

 14 14  0  0  0  0  0  0  0  0999 V2000
    2.8105   -0.3996   -0.0349 O   0  0  0  0  0  0  0  0  0  0  0  0
    1.8035   -0.1566   -0.6434 C   0  0  0  0  0  0  0  0  0  0  0  0
    0.4911   -0.3838   -0.0232 C   0  0  0  0  0  0  0  0  0  0  0  0
    0.4956   -1.2562    1.0631 O   0  0  0  0  0  0  0  0  0  0  0  0
   -0.2657    0.9319    0.2288 C   0  0  0  0  0  0  0  0  0  0  0  0
   -0.8779    1.0584    1.4656 O   0  0  0  0  0  0  0  0  0  0  0  0
   -0.7795   -0.1344   -0.7337 C   0  0  0  0  0  0  0  0  0  0  0  0
   -1.8884   -0.8055   -0.2880 O   0  0  0  0  0  0  0  0  0  0  0  0
    1.8617    0.2266   -1.6410 H   0  0  0  0  0  0  0  0  0  0  0  0
   -0.3891   -1.2786    1.5093 H   0  0  0  0  0  0  0  0  0  0  0  0
    0.0957    1.8598   -0.2338 H   0  0  0  0  0  0  0  0  0  0  0  0
   -0.5158    1.8699    1.8955 H   0  0  0  0  0  0  0  0  0  0  0  0
   -0.7932    0.1397   -1.8099 H   0  0  0  0  0  0  0  0  0  0  0  0
   -2.0485   -1.6713   -0.7544 H   0  0  0  0  0  0  0  0  0  0  0  0
  1  2  2  0
  2  3  1  0
  3  4  1  0
  3  5  1  0
  5  6  1  0
  5  7  1  0
  7  8  1  0
  7  3  1  0
  2  9  1  0
  4 10  1  0
  5 11  1  0
  6 12  1  0
  7 13  1  0
  8 14  1  0
M  END
