
     RDKit          3D

 19 20  0  0  0  0  0  0  0  0999 V2000
   -1.8671    2.2173   -0.8608 O   0  0  0  0  0  0  0  0  0  0  0  0
   -1.6487    1.3596    0.0041 C   0  0  0  0  0  0  0  0  0  0  0  0
   -0.8148    0.3252   -0.1890 C   0  0  0  0  0  0  0  0  0  0  0  0
   -0.8612   -1.0144    0.4905 C   0  0  0  0  0  0  0  0  0  0  0  0
    0.2515   -1.1658   -0.4958 C   0  0  0  0  0  0  0  0  0  0  0  0
   -0.6920   -0.5018   -1.4687 C   0  0  0  0  0  0  0  0  0  0  0  0
    0.6574    0.2372   -0.1364 C   0  0  0  0  0  0  0  0  0  0  0  0
    1.3886    0.4642    1.1240 C   0  0  0  0  0  0  0  0  0  0  0  0
    2.7701    0.3249    0.9089 O   0  0  0  0  0  0  0  0  0  0  0  0
   -2.2176    1.5534    0.9345 H   0  0  0  0  0  0  0  0  0  0  0  0
   -1.7976   -1.5466    0.1813 H   0  0  0  0  0  0  0  0  0  0  0  0
   -0.6432   -1.0637    1.5527 H   0  0  0  0  0  0  0  0  0  0  0  0
    0.8403   -1.9516   -0.6654 H   0  0  0  0  0  0  0  0  0  0  0  0
   -0.1459   -0.0260   -2.2833 H   0  0  0  0  0  0  0  0  0  0  0  0
   -1.6212   -1.0218   -1.6876 H   0  0  0  0  0  0  0  0  0  0  0  0
    1.1233    0.7449   -1.0206 H   0  0  0  0  0  0  0  0  0  0  0  0
    1.0936   -0.1260    1.9855 H   0  0  0  0  0  0  0  0  0  0  0  0
    1.2547    1.5462    1.4146 H   0  0  0  0  0  0  0  0  0  0  0  0
    2.9298   -0.3552    0.2116 H   0  0  0  0  0  0  0  0  0  0  0  0
  1  2  2  0
  2  3  1  0
  3  4  1  0
  4  5  1  0
  5  6  1  0
  5  7  1  0
  7  8  1  0
  8  9  1  0
  6  3  1  0
  7  3  1  0
  2 10  1  0
  4 11  1  0
  4 12  1  0
  5 13  1  0
  6 14  1  0
  6 15  1  0
  7 16  1  0
  8 17  1  0
  8 18  1  0
  9 19  1  0
M  END
