
     RDKit          3D

 17 18  0  0  0  0  0  0  0  0999 V2000
    2.2417   -0.5810    1.0010 O   0  0  0  0  0  0  0  0  0  0  0  0
    1.9113   -0.7941   -0.1486 C   0  0  0  0  0  0  0  0  0  0  0  0
    0.7383   -0.1269   -0.7328 C   0  0  0  0  0  0  0  0  0  0  0  0
    0.4457    1.2112   -0.0263 C   0  0  0  0  0  0  0  0  0  0  0  0
   -0.9057    0.8663    0.5480 C   0  0  0  0  0  0  0  0  0  0  0  0
   -0.7830   -0.5587    1.0493 C   0  0  0  0  0  0  0  0  0  0  0  0
   -0.5424   -0.8369   -0.4256 C   0  0  0  0  0  0  0  0  0  0  0  0
   -1.5673    0.2414   -0.6389 C   0  0  0  0  0  0  0  0  0  0  0  0
   -2.4817    0.5308   -1.3634 O   0  0  0  0  0  0  0  0  0  0  0  0
    2.5117   -1.4905   -0.7213 H   0  0  0  0  0  0  0  0  0  0  0  0
    0.8890    0.0659   -1.8089 H   0  0  0  0  0  0  0  0  0  0  0  0
    0.2797    1.9868   -0.7984 H   0  0  0  0  0  0  0  0  0  0  0  0
    1.2029    1.4493    0.7142 H   0  0  0  0  0  0  0  0  0  0  0  0
   -1.4405    1.5769    1.1210 H   0  0  0  0  0  0  0  0  0  0  0  0
   -1.7875   -0.9605    1.3100 H   0  0  0  0  0  0  0  0  0  0  0  0
    0.0288   -0.7762    1.7263 H   0  0  0  0  0  0  0  0  0  0  0  0
   -0.7409   -1.8038   -0.8056 H   0  0  0  0  0  0  0  0  0  0  0  0
  1  2  2  0
  2  3  1  0
  3  4  1  0
  4  5  1  0
  5  6  1  0
  6  7  1  0
  7  8  1  0
  8  9  2  0
  7  3  1  0
  8  5  1  0
  2 10  1  0
  3 11  1  0
  4 12  1  0
  4 13  1  0
  5 14  1  0
  6 15  1  0
  6 16  1  0
  7 17  1  0
M  END
