
     RDKit          3D

 19 20  0  0  0  0  0  0  0  0999 V2000
   -1.4287    2.1962    0.5196 O   0  0  0  0  0  0  0  0  0  0  0  0
   -1.8048    1.0626    0.3230 C   0  0  0  0  0  0  0  0  0  0  0  0
   -1.1366    0.1265   -0.5777 C   0  0  0  0  0  0  0  0  0  0  0  0
   -0.5561   -1.1176    0.1134 C   0  0  0  0  0  0  0  0  0  0  0  0
    0.2643   -0.5298    1.2117 C   0  0  0  0  0  0  0  0  0  0  0  0
    0.9665    0.5992    0.4279 C   0  0  0  0  0  0  0  0  0  0  0  0
    2.3201    0.2815    0.2816 O   0  0  0  0  0  0  0  0  0  0  0  0
    0.3051    0.4000   -0.9060 C   0  0  0  0  0  0  0  0  0  0  0  0
    0.4028   -1.1297   -1.0516 C   0  0  0  0  0  0  0  0  0  0  0  0
   -2.6936    0.7182    0.8475 H   0  0  0  0  0  0  0  0  0  0  0  0
   -1.7017   -0.1602   -1.4965 H   0  0  0  0  0  0  0  0  0  0  0  0
   -1.2036   -1.9378    0.2768 H   0  0  0  0  0  0  0  0  0  0  0  0
    1.0340   -1.2115    1.5928 H   0  0  0  0  0  0  0  0  0  0  0  0
   -0.3314   -0.0298    2.0005 H   0  0  0  0  0  0  0  0  0  0  0  0
    0.7943    1.5726    0.8832 H   0  0  0  0  0  0  0  0  0  0  0  0
    2.8730    1.0711    0.1344 H   0  0  0  0  0  0  0  0  0  0  0  0
    0.5681    0.9900   -1.7399 H   0  0  0  0  0  0  0  0  0  0  0  0
    1.4083   -1.4895   -0.8497 H   0  0  0  0  0  0  0  0  0  0  0  0
   -0.0799   -1.4120   -1.9908 H   0  0  0  0  0  0  0  0  0  0  0  0
  1  2  2  0
  2  3  1  0
  3  4  1  0
  4  5  1  0
  5  6  1  0
  6  7  1  0
  6  8  1  0
  8  9  1  0
  8  3  1  0
  9  4  1  0
  2 10  1  0
  3 11  1  0
  4 12  1  0
  5 13  1  0
  5 14  1  0
  6 15  1  0
  7 16  1  0
  8 17  1  0
  9 18  1  0
  9 19  1  0
M  END
