
     RDKit          3D

 17 17  0  0  0  0  0  0  0  0999 V2000
    1.1592   -1.4640    2.4825 O   0  0  0  0  0  0  0  0  0  0  0  0
    2.1810   -1.5564    1.8272 C   0  0  0  0  0  0  0  0  0  0  0  0
    2.2849   -0.9916    0.4788 C   0  0  0  0  0  0  0  0  0  0  0  0
    1.0145   -0.3564    0.1297 C   0  0  0  0  0  0  0  0  0  0  0  0
   -0.0527    0.1836   -0.1848 C   0  0  0  0  0  0  0  0  0  0  0  0
   -1.3185    0.8172   -0.5317 C   0  0  0  0  0  0  0  0  0  0  0  0
   -2.1305    0.0285   -1.5687 C   0  0  0  0  0  0  0  0  0  0  0  0
   -2.4551    1.2531   -2.1480 O   0  0  0  0  0  0  0  0  0  0  0  0
   -1.2284    1.7673   -1.7005 C   0  0  0  0  0  0  0  0  0  0  0  0
    3.0197   -2.0702    2.2670 H   0  0  0  0  0  0  0  0  0  0  0  0
    3.0848   -0.2199    0.3870 H   0  0  0  0  0  0  0  0  0  0  0  0
    2.5560   -1.7872   -0.2793 H   0  0  0  0  0  0  0  0  0  0  0  0
   -1.9540    1.1121    0.3023 H   0  0  0  0  0  0  0  0  0  0  0  0
   -1.4247   -0.5907   -2.1678 H   0  0  0  0  0  0  0  0  0  0  0  0
   -2.9533   -0.5245   -1.1237 H   0  0  0  0  0  0  0  0  0  0  0  0
   -0.3898    1.5624   -2.3636 H   0  0  0  0  0  0  0  0  0  0  0  0
   -1.3932    2.8366   -1.4258 H   0  0  0  0  0  0  0  0  0  0  0  0
  1  2  2  0
  2  3  1  0
  3  4  1  0
  4  5  3  0
  5  6  1  0
  6  7  1  0
  7  8  1  0
  8  9  1  0
  9  6  1  0
  2 10  1  0
  3 11  1  0
  3 12  1  0
  6 13  1  0
  7 14  1  0
  7 15  1  0
  9 16  1  0
  9 17  1  0
M  END
