
     RDKit          3D

 16 17  0  0  0  0  0  0  0  0999 V2000
    2.4496   -0.9763    1.5577 O   0  0  0  0  0  0  0  0  0  0  0  0
    1.4041   -1.0965    0.9687 C   0  0  0  0  0  0  0  0  0  0  0  0
    1.1228   -0.1980   -0.1689 C   0  0  0  0  0  0  0  0  0  0  0  0
    0.7915    1.2284    0.2106 C   0  0  0  0  0  0  0  0  0  0  0  0
   -0.6118    1.0232   -0.2664 C   0  0  0  0  0  0  0  0  0  0  0  0
   -1.4210   -0.1271    0.1853 C   0  0  0  0  0  0  0  0  0  0  0  0
   -2.6862   -0.2261   -0.4218 O   0  0  0  0  0  0  0  0  0  0  0  0
   -0.2677   -0.3377   -0.7058 C   0  0  0  0  0  0  0  0  0  0  0  0
    0.6810   -1.8347    1.2504 H   0  0  0  0  0  0  0  0  0  0  0  0
    1.8645   -0.2947   -0.9880 H   0  0  0  0  0  0  0  0  0  0  0  0
    0.9085    1.3595    1.3066 H   0  0  0  0  0  0  0  0  0  0  0  0
    1.3373    1.9548   -0.4095 H   0  0  0  0  0  0  0  0  0  0  0  0
   -1.0139    1.7974   -0.9522 H   0  0  0  0  0  0  0  0  0  0  0  0
   -1.3799   -0.4441    1.2610 H   0  0  0  0  0  0  0  0  0  0  0  0
   -2.7304   -1.1299   -0.8428 H   0  0  0  0  0  0  0  0  0  0  0  0
   -0.4483   -0.6982   -1.7359 H   0  0  0  0  0  0  0  0  0  0  0  0
  1  2  2  0
  2  3  1  0
  3  4  1  0
  4  5  1  0
  5  6  1  0
  6  7  1  0
  6  8  1  0
  8  3  1  0
  8  5  1  0
  2  9  1  0
  3 10  1  0
  4 11  1  0
  4 12  1  0
  5 13  1  0
  6 14  1  0
  7 15  1  0
  8 16  1  0
M  END
