
     RDKit          3D

 19 20  0  0  0  0  0  0  0  0999 V2000
   -1.3498   -0.3940    2.1234 O   0  0  0  0  0  0  0  0  0  0  0  0
   -1.3197    0.4269    1.2377 C   0  0  0  0  0  0  0  0  0  0  0  0
   -0.9471    0.1036   -0.1638 C   0  0  0  0  0  0  0  0  0  0  0  0
   -0.0252    1.1029   -0.7446 C   0  0  0  0  0  0  0  0  0  0  0  0
    1.3786    0.6368   -0.3400 C   0  0  0  0  0  0  0  0  0  0  0  0
    1.3815   -0.2782    0.8425 C   0  0  0  0  0  0  0  0  0  0  0  0
    0.5014   -1.3677    0.7480 O   0  0  0  0  0  0  0  0  0  0  0  0
   -0.1703   -1.2315   -0.4091 C   0  0  0  0  0  0  0  0  0  0  0  0
   -1.5387   -1.0592   -0.7318 C   0  0  0  0  0  0  0  0  0  0  0  0
   -1.5735    1.4459    1.4642 H   0  0  0  0  0  0  0  0  0  0  0  0
   -0.2440    2.1179   -0.3532 H   0  0  0  0  0  0  0  0  0  0  0  0
   -0.0608    1.1586   -1.8508 H   0  0  0  0  0  0  0  0  0  0  0  0
    1.9153    1.5597   -0.0331 H   0  0  0  0  0  0  0  0  0  0  0  0
    1.9401    0.2357   -1.2102 H   0  0  0  0  0  0  0  0  0  0  0  0
    2.4084   -0.7530    0.8551 H   0  0  0  0  0  0  0  0  0  0  0  0
    1.3017    0.2545    1.8017 H   0  0  0  0  0  0  0  0  0  0  0  0
    0.5484   -1.2526   -1.2818 H   0  0  0  0  0  0  0  0  0  0  0  0
   -1.8400   -1.0934   -1.8181 H   0  0  0  0  0  0  0  0  0  0  0  0
   -2.3063   -1.6129   -0.1360 H   0  0  0  0  0  0  0  0  0  0  0  0
  1  2  2  0
  2  3  1  0
  3  4  1  0
  4  5  1  0
  5  6  1  0
  6  7  1  0
  7  8  1  0
  8  9  1  0
  8  3  1  0
  9  3  1  0
  2 10  1  0
  4 11  1  0
  4 12  1  0
  5 13  1  0
  5 14  1  0
  6 15  1  0
  6 16  1  0
  8 17  1  0
  9 18  1  0
  9 19  1  0
M  END
