
     RDKit          2D

 17 19  0  0  0  0  0  0  0  0999 V2000
    0.9894    4.5586    0.0000 O   0  0  0  0  0  0  0  0  0  0  0  0
   -0.0712    3.4979    0.0000 C   0  0  0  0  0  0  0  0  0  0  0  0
    0.3170    2.0490    0.0000 C   0  0  0  0  0  0  0  0  0  0  0  0
    1.6160    1.2990    0.0000 C   0  0  0  0  0  0  0  0  0  0  0  0
    0.8660    0.0000    0.0000 C   0  0  0  0  0  0  0  0  0  0  0  0
   -0.4330    0.7500    0.0000 C   0  0  0  0  0  0  0  0  0  0  0  0
   -0.4330   -0.7500    0.0000 C   0  0  0  0  0  0  0  0  0  0  0  0
   -1.1830   -2.0490    0.0000 O   0  0  0  0  0  0  0  0  0  0  0  0
   -0.9821    1.2990    0.0000 C   0  0  0  0  0  0  0  0  0  0  0  0
   -1.5201    3.8862    0.0000 H   0  0  0  0  0  0  0  0  0  0  0  0
    2.9151    0.5490    0.0000 H   0  0  0  0  0  0  0  0  0  0  0  0
    2.3660    2.5981    0.0000 H   0  0  0  0  0  0  0  0  0  0  0  0
    1.9267   -1.0607    0.0000 H   0  0  0  0  0  0  0  0  0  0  0  0
   -1.2224    0.8609    0.0000 H   0  0  0  0  0  0  0  0  0  0  0  0
   -2.6830   -2.0490    0.0000 H   0  0  0  0  0  0  0  0  0  0  0  0
   -1.7321    2.5981    0.0000 H   0  0  0  0  0  0  0  0  0  0  0  0
   -2.1005    0.8243    0.0000 H   0  0  0  0  0  0  0  0  0  0  0  0
  1  2  2  0
  2  3  1  0
  3  4  1  0
  4  5  1  0
  5  6  1  0
  6  7  1  0
  7  8  1  0
  7  9  1  0
  6  3  1  0
  9  3  1  0
  7  5  1  0
  2 10  1  0
  4 11  1  0
  4 12  1  0
  5 13  1  0
  6 14  1  0
  8 15  1  0
  9 16  1  0
  9 17  1  0
M  END
