
     RDKit          3D

 19 20  0  0  0  0  0  0  0  0999 V2000
    2.1996   -1.3256    0.0830 O   0  0  0  0  0  0  0  0  0  0  0  0
    2.4696   -0.1489    0.2493 C   0  0  0  0  0  0  0  0  0  0  0  0
    1.3310    0.8152    0.2938 C   0  0  0  0  0  0  0  0  0  0  0  0
    0.1043    0.2359    0.1374 C   0  0  0  0  0  0  0  0  0  0  0  0
   -0.5039   -0.8254    1.0357 C   0  0  0  0  0  0  0  0  0  0  0  0
   -1.5127   -0.6572   -0.0642 C   0  0  0  0  0  0  0  0  0  0  0  0
   -0.3134   -0.6886   -1.0032 C   0  0  0  0  0  0  0  0  0  0  0  0
   -1.2485    0.8141    0.0425 C   0  0  0  0  0  0  0  0  0  0  0  0
   -1.5521    1.4585   -1.1581 O   0  0  0  0  0  0  0  0  0  0  0  0
    3.5120    0.1934    0.3628 H   0  0  0  0  0  0  0  0  0  0  0  0
    1.5792    1.6063   -0.4508 H   0  0  0  0  0  0  0  0  0  0  0  0
    1.4574    1.3414    1.2879 H   0  0  0  0  0  0  0  0  0  0  0  0
   -0.7843   -0.4646    2.0288 H   0  0  0  0  0  0  0  0  0  0  0  0
    0.0396   -1.7651    0.9527 H   0  0  0  0  0  0  0  0  0  0  0  0
   -2.3774   -1.1342   -0.1973 H   0  0  0  0  0  0  0  0  0  0  0  0
   -0.5190   -0.1900   -1.9548 H   0  0  0  0  0  0  0  0  0  0  0  0
    0.1695   -1.6644   -1.0234 H   0  0  0  0  0  0  0  0  0  0  0  0
   -1.6693    1.3008    0.9408 H   0  0  0  0  0  0  0  0  0  0  0  0
   -2.3814    1.0983   -1.5629 H   0  0  0  0  0  0  0  0  0  0  0  0
  1  2  2  0
  2  3  1  0
  3  4  1  0
  4  5  1  0
  5  6  1  0
  6  7  1  0
  6  8  1  0
  8  9  1  0
  7  4  1  0
  8  4  1  0
  2 10  1  0
  3 11  1  0
  3 12  1  0
  5 13  1  0
  5 14  1  0
  6 15  1  0
  7 16  1  0
  7 17  1  0
  8 18  1  0
  9 19  1  0
M  END
