
     RDKit          3D

 17 19  0  0  0  0  0  0  0  0999 V2000
   -1.6591   -2.4282   -0.0884 O   0  0  0  0  0  0  0  0  0  0  0  0
   -1.7578   -1.1925   -0.0708 C   0  0  0  0  0  0  0  0  0  0  0  0
   -0.5855   -0.3871   -0.1192 C   0  0  0  0  0  0  0  0  0  0  0  0
   -0.0952    0.5045    0.9766 C   0  0  0  0  0  0  0  0  0  0  0  0
    1.2928   -0.0404    1.1922 C   0  0  0  0  0  0  0  0  0  0  0  0
    1.6872   -0.6824    0.1034 C   0  0  0  0  0  0  0  0  0  0  0  0
    0.6245   -0.6340   -0.9322 C   0  0  0  0  0  0  0  0  0  0  0  0
   -0.1908    0.5867   -1.1164 C   0  0  0  0  0  0  0  0  0  0  0  0
   -0.0962    1.6448   -0.0446 C   0  0  0  0  0  0  0  0  0  0  0  0
   -2.7598   -0.7952   -0.0181 H   0  0  0  0  0  0  0  0  0  0  0  0
   -0.7022    0.6437    1.8566 H   0  0  0  0  0  0  0  0  0  0  0  0
    1.8194    0.1150    2.1287 H   0  0  0  0  0  0  0  0  0  0  0  0
    2.6377   -1.1657   -0.0091 H   0  0  0  0  0  0  0  0  0  0  0  0
    0.5949   -1.3881   -1.7222 H   0  0  0  0  0  0  0  0  0  0  0  0
   -0.7340    0.7346   -2.0379 H   0  0  0  0  0  0  0  0  0  0  0  0
   -0.9582    2.3124    0.0255 H   0  0  0  0  0  0  0  0  0  0  0  0
    0.8824    2.1718   -0.1241 H   0  0  0  0  0  0  0  0  0  0  0  0
  1  2  2  0
  2  3  1  0
  3  4  1  0
  4  5  1  0
  5  6  2  0
  6  7  1  0
  7  8  1  0
  8  9  1  0
  7  3  1  0
  8  3  1  0
  9  4  1  0
  2 10  1  0
  4 11  1  0
  5 12  1  0
  6 13  1  0
  7 14  1  0
  8 15  1  0
  9 16  1  0
  9 17  1  0
M  END
