
     RDKit          3D

 19 21  0  0  0  0  0  0  0  0999 V2000
    2.6420    1.7875   -0.1386 O   0  0  0  0  0  0  0  0  0  0  0  0
    2.2946    0.6372   -0.2659 C   0  0  0  0  0  0  0  0  0  0  0  0
    1.0268    0.1944    0.3221 C   0  0  0  0  0  0  0  0  0  0  0  0
    0.7656   -1.2672    0.1989 C   0  0  0  0  0  0  0  0  0  0  0  0
   -0.7152   -1.3734   -0.1300 C   0  0  0  0  0  0  0  0  0  0  0  0
   -1.6686   -0.3731    0.3821 C   0  0  0  0  0  0  0  0  0  0  0  0
   -1.2603    1.0305    0.6978 C   0  0  0  0  0  0  0  0  0  0  0  0
   -0.1613    0.8954   -0.3472 C   0  0  0  0  0  0  0  0  0  0  0  0
   -0.9270   -0.1912   -0.9780 C   0  0  0  0  0  0  0  0  0  0  0  0
    2.9226   -0.0419   -0.8088 H   0  0  0  0  0  0  0  0  0  0  0  0
    1.0523    0.4741    1.4108 H   0  0  0  0  0  0  0  0  0  0  0  0
    0.9519   -1.8506    1.1072 H   0  0  0  0  0  0  0  0  0  0  0  0
    1.3054   -1.7173   -0.6586 H   0  0  0  0  0  0  0  0  0  0  0  0
   -1.1082   -2.3229   -0.4827 H   0  0  0  0  0  0  0  0  0  0  0  0
   -2.7273   -0.6263    0.3434 H   0  0  0  0  0  0  0  0  0  0  0  0
   -0.9079    1.2449    1.7074 H   0  0  0  0  0  0  0  0  0  0  0  0
   -1.9751    1.8168    0.3556 H   0  0  0  0  0  0  0  0  0  0  0  0
    0.0824    1.7925   -0.9073 H   0  0  0  0  0  0  0  0  0  0  0  0
   -1.5925   -0.1093   -1.8082 H   0  0  0  0  0  0  0  0  0  0  0  0
  1  2  2  0
  2  3  1  0
  3  4  1  0
  4  5  1  0
  5  6  1  0
  6  7  1  0
  7  8  1  0
  8  9  1  0
  8  3  1  0
  9  5  1  0
  9  6  1  0
  2 10  1  0
  3 11  1  0
  4 12  1  0
  4 13  1  0
  5 14  1  0
  6 15  1  0
  7 16  1  0
  7 17  1  0
  8 18  1  0
  9 19  1  0
M  END
