
     RDKit          3D

 17 17  0  0  0  0  0  0  0  0999 V2000
   -2.4606    1.8116    0.5530 O   0  0  0  0  0  0  0  0  0  0  0  0
   -2.0440    0.7620    0.0929 C   0  0  0  0  0  0  0  0  0  0  0  0
   -0.7989    0.7139   -0.7436 C   0  0  0  0  0  0  0  0  0  0  0  0
    0.3047    1.4482   -0.0968 C   0  0  0  0  0  0  0  0  0  0  0  0
    1.4194    0.9652    0.4024 C   0  0  0  0  0  0  0  0  0  0  0  0
    1.8005   -0.4394    0.4171 C   0  0  0  0  0  0  0  0  0  0  0  0
    1.0967   -1.5420    0.1785 C   0  0  0  0  0  0  0  0  0  0  0  0
   -0.3677   -1.4978   -0.1843 C   0  0  0  0  0  0  0  0  0  0  0  0
   -0.4956   -0.5483   -1.1632 O   0  0  0  0  0  0  0  0  0  0  0  0
   -2.5407   -0.1911    0.2570 H   0  0  0  0  0  0  0  0  0  0  0  0
   -1.0408    1.3075   -1.6779 H   0  0  0  0  0  0  0  0  0  0  0  0
    0.1594    2.5064   -0.0366 H   0  0  0  0  0  0  0  0  0  0  0  0
    2.1272    1.6582    0.8452 H   0  0  0  0  0  0  0  0  0  0  0  0
    2.8403   -0.6547    0.6644 H   0  0  0  0  0  0  0  0  0  0  0  0
    1.5655   -2.4986    0.2407 H   0  0  0  0  0  0  0  0  0  0  0  0
   -0.6720   -2.5190   -0.5050 H   0  0  0  0  0  0  0  0  0  0  0  0
   -0.8936   -1.2820    0.7562 H   0  0  0  0  0  0  0  0  0  0  0  0
  1  2  2  0
  2  3  1  0
  3  4  1  0
  4  5  2  0
  5  6  1  0
  6  7  2  0
  7  8  1  0
  8  9  1  0
  9  3  1  0
  2 10  1  0
  3 11  1  0
  4 12  1  0
  5 13  1  0
  6 14  1  0
  7 15  1  0
  8 16  1  0
  8 17  1  0
M  END
