
     RDKit          3D

 15 15  0  0  0  0  0  0  0  0999 V2000
   -2.8437   -0.0791   -0.7637 O   0  0  0  0  0  0  0  0  0  0  0  0
   -1.9648   -0.7108   -0.1992 C   0  0  0  0  0  0  0  0  0  0  0  0
   -0.8099   -0.1140    0.4915 C   0  0  0  0  0  0  0  0  0  0  0  0
   -0.8664    1.2881    0.4065 O   0  0  0  0  0  0  0  0  0  0  0  0
    0.5138    1.3110    0.2458 C   0  0  0  0  0  0  0  0  0  0  0  0
    0.4934   -0.1354   -0.2331 C   0  0  0  0  0  0  0  0  0  0  0  0
    0.4343   -0.2689   -1.6075 O   0  0  0  0  0  0  0  0  0  0  0  0
    1.6057   -0.8665    0.3978 C   0  0  0  0  0  0  0  0  0  0  0  0
    1.7624   -0.8279    1.5897 O   0  0  0  0  0  0  0  0  0  0  0  0
   -2.0568   -1.7909   -0.2172 H   0  0  0  0  0  0  0  0  0  0  0  0
   -0.7383   -0.4919    1.5235 H   0  0  0  0  0  0  0  0  0  0  0  0
    1.0439    1.4825    1.1852 H   0  0  0  0  0  0  0  0  0  0  0  0
    0.8436    2.0417   -0.5154 H   0  0  0  0  0  0  0  0  0  0  0  0
    0.3153    0.5923   -2.0774 H   0  0  0  0  0  0  0  0  0  0  0  0
    2.2676   -1.4299   -0.2266 H   0  0  0  0  0  0  0  0  0  0  0  0
  1  2  2  0
  2  3  1  0
  3  4  1  0
  4  5  1  0
  5  6  1  0
  6  7  1  0
  6  8  1  0
  8  9  2  0
  6  3  1  0
  2 10  1  0
  3 11  1  0
  5 12  1  0
  5 13  1  0
  7 14  1  0
  8 15  1  0
M  END
