
     RDKit          3D

 17 17  0  0  0  0  0  0  0  0999 V2000
   -2.4280   -0.9319    0.9905 O   0  0  0  0  0  0  0  0  0  0  0  0
   -1.5060   -1.0215    0.2067 C   0  0  0  0  0  0  0  0  0  0  0  0
   -1.0189    0.1006   -0.6302 C   0  0  0  0  0  0  0  0  0  0  0  0
   -1.1051    1.4556    0.0258 C   0  0  0  0  0  0  0  0  0  0  0  0
    0.3253    1.3805    0.3473 C   0  0  0  0  0  0  0  0  0  0  0  0
    1.1563    1.9468    1.0550 O   0  0  0  0  0  0  0  0  0  0  0  0
    0.4745    0.2395   -0.5868 C   0  0  0  0  0  0  0  0  0  0  0  0
    1.1922   -0.9265    0.0784 C   0  0  0  0  0  0  0  0  0  0  0  0
    2.5604   -0.6342    0.0318 O   0  0  0  0  0  0  0  0  0  0  0  0
   -1.0080   -1.9745    0.1105 H   0  0  0  0  0  0  0  0  0  0  0  0
   -1.4512    0.0393   -1.6549 H   0  0  0  0  0  0  0  0  0  0  0  0
   -1.7800    1.5245    0.8929 H   0  0  0  0  0  0  0  0  0  0  0  0
   -1.2861    2.2292   -0.7473 H   0  0  0  0  0  0  0  0  0  0  0  0
    0.9448    0.5402   -1.5295 H   0  0  0  0  0  0  0  0  0  0  0  0
    0.9198   -1.0498    1.1285 H   0  0  0  0  0  0  0  0  0  0  0  0
    0.9602   -1.8541   -0.5101 H   0  0  0  0  0  0  0  0  0  0  0  0
    3.0498   -1.0636    0.7914 H   0  0  0  0  0  0  0  0  0  0  0  0
  1  2  2  0
  2  3  1  0
  3  4  1  0
  4  5  1  0
  5  6  2  0
  5  7  1  0
  7  8  1  0
  8  9  1  0
  7  3  1  0
  2 10  1  0
  3 11  1  0
  4 12  1  0
  4 13  1  0
  7 14  1  0
  8 15  1  0
  8 16  1  0
  9 17  1  0
M  END
