
     RDKit          3D

 11 11  0  0  0  0  0  0  0  0999 V2000
    2.4335   -0.1006   -1.6736 O   0  0  0  0  0  0  0  0  0  0  0  0
    1.8580   -0.0940   -0.5901 C   0  0  0  0  0  0  0  0  0  0  0  0
    0.3878   -0.2232   -0.5085 C   0  0  0  0  0  0  0  0  0  0  0  0
    0.0404   -1.2669    0.4594 O   0  0  0  0  0  0  0  0  0  0  0  0
   -0.3873    0.0414    0.6720 C   0  0  0  0  0  0  0  0  0  0  0  0
   -1.8584    0.2056    0.5124 C   0  0  0  0  0  0  0  0  0  0  0  0
   -2.4967   -0.3552   -0.3585 O   0  0  0  0  0  0  0  0  0  0  0  0
    2.4989    0.0114    0.2772 H   0  0  0  0  0  0  0  0  0  0  0  0
   -0.1328   -0.3233   -1.4781 H   0  0  0  0  0  0  0  0  0  0  0  0
    0.0682    0.6045    1.5000 H   0  0  0  0  0  0  0  0  0  0  0  0
   -2.4117    0.8473    1.1879 H   0  0  0  0  0  0  0  0  0  0  0  0
  1  2  2  0
  2  3  1  0
  3  4  1  0
  4  5  1  0
  5  6  1  0
  6  7  2  0
  5  3  1  0
  2  8  1  0
  3  9  1  0
  5 10  1  0
  6 11  1  0
M  END
