
     RDKit          3D

 17 18  0  0  0  0  0  0  0  0999 V2000
   -2.5593    0.1111   -1.2615 O   0  0  0  0  0  0  0  0  0  0  0  0
   -1.4360    0.5740   -1.1049 C   0  0  0  0  0  0  0  0  0  0  0  0
   -0.7189    0.2764    0.1279 C   0  0  0  0  0  0  0  0  0  0  0  0
   -0.8609   -1.0997    0.7867 C   0  0  0  0  0  0  0  0  0  0  0  0
    0.5947   -1.3030    0.5288 C   0  0  0  0  0  0  0  0  0  0  0  0
    0.7663    0.1332    0.1573 C   0  0  0  0  0  0  0  0  0  0  0  0
    1.5858    0.4893   -1.0263 C   0  0  0  0  0  0  0  0  0  0  0  0
    2.7817    0.6605   -0.9062 O   0  0  0  0  0  0  0  0  0  0  0  0
    0.0689    1.2234    0.8963 C   0  0  0  0  0  0  0  0  0  0  0  0
   -1.0526    1.1840   -1.9144 H   0  0  0  0  0  0  0  0  0  0  0  0
   -1.0446   -0.9722    1.8742 H   0  0  0  0  0  0  0  0  0  0  0  0
   -1.5731   -1.6926    0.2235 H   0  0  0  0  0  0  0  0  0  0  0  0
    0.8227   -1.9891   -0.3314 H   0  0  0  0  0  0  0  0  0  0  0  0
    1.2105   -1.6261    1.3928 H   0  0  0  0  0  0  0  0  0  0  0  0
    1.0975    0.5905   -1.9827 H   0  0  0  0  0  0  0  0  0  0  0  0
    0.0565    1.2014    2.0242 H   0  0  0  0  0  0  0  0  0  0  0  0
    0.2608    2.2389    0.5159 H   0  0  0  0  0  0  0  0  0  0  0  0
  1  2  2  0
  2  3  1  0
  3  4  1  0
  4  5  1  0
  5  6  1  0
  6  7  1  0
  7  8  2  0
  6  9  1  0
  6  3  1  0
  9  3  1  0
  2 10  1  0
  4 11  1  0
  4 12  1  0
  5 13  1  0
  5 14  1  0
  7 15  1  0
  9 16  1  0
  9 17  1  0
M  END
