
     RDKit          3D

 17 18  0  0  0  0  0  0  0  0999 V2000
    3.0696   -0.2496    0.5391 O   0  0  0  0  0  0  0  0  0  0  0  0
    2.3170   -0.5069   -0.3857 C   0  0  0  0  0  0  0  0  0  0  0  0
    0.8979   -0.7269   -0.0774 C   0  0  0  0  0  0  0  0  0  0  0  0
    0.1124   -1.0111   -1.1632 O   0  0  0  0  0  0  0  0  0  0  0  0
   -1.1523   -1.1965   -0.5540 C   0  0  0  0  0  0  0  0  0  0  0  0
   -1.2593   -0.0343    0.4067 C   0  0  0  0  0  0  0  0  0  0  0  0
   -0.7840    1.2660   -0.1165 C   0  0  0  0  0  0  0  0  0  0  0  0
   -1.2324    2.3830    0.5539 O   0  0  0  0  0  0  0  0  0  0  0  0
    0.2134    0.4337    0.5618 C   0  0  0  0  0  0  0  0  0  0  0  0
    2.7331   -0.5595   -1.3811 H   0  0  0  0  0  0  0  0  0  0  0  0
    0.8424   -1.5854    0.6380 H   0  0  0  0  0  0  0  0  0  0  0  0
   -1.9679   -1.0995   -1.2876 H   0  0  0  0  0  0  0  0  0  0  0  0
   -1.2156   -2.1741   -0.0680 H   0  0  0  0  0  0  0  0  0  0  0  0
   -1.7888   -0.1395    1.3568 H   0  0  0  0  0  0  0  0  0  0  0  0
   -0.7984    1.3864   -1.2326 H   0  0  0  0  0  0  0  0  0  0  0  0
   -0.5378    3.0901    0.6527 H   0  0  0  0  0  0  0  0  0  0  0  0
    0.5509    0.7240    1.5571 H   0  0  0  0  0  0  0  0  0  0  0  0
  1  2  2  0
  2  3  1  0
  3  4  1  0
  4  5  1  0
  5  6  1  0
  6  7  1  0
  7  8  1  0
  7  9  1  0
  9  3  1  0
  9  6  1  0
  2 10  1  0
  3 11  1  0
  5 12  1  0
  5 13  1  0
  6 14  1  0
  7 15  1  0
  8 16  1  0
  9 17  1  0
M  END
