
     RDKit          3D

 21 22  0  0  0  0  0  0  0  0999 V2000
   -2.1034   -2.1658    0.0713 O   0  0  0  0  0  0  0  0  0  0  0  0
   -1.6532   -1.2083    0.6804 C   0  0  0  0  0  0  0  0  0  0  0  0
   -0.5449   -0.4746    0.0727 C   0  0  0  0  0  0  0  0  0  0  0  0
    0.6359   -1.3301   -0.2464 C   0  0  0  0  0  0  0  0  0  0  0  0
    1.8743   -0.5477    0.0702 C   0  0  0  0  0  0  0  0  0  0  0  0
    1.3769    0.8705    0.1178 C   0  0  0  0  0  0  0  0  0  0  0  0
   -0.0067    0.7144    0.7568 C   0  0  0  0  0  0  0  0  0  0  0  0
   -0.9817    1.5764   -0.0278 C   0  0  0  0  0  0  0  0  0  0  0  0
   -1.0364    0.4260   -1.0379 C   0  0  0  0  0  0  0  0  0  0  0  0
   -2.1222   -0.9817    1.6345 H   0  0  0  0  0  0  0  0  0  0  0  0
    0.6235   -1.7798   -1.2469 H   0  0  0  0  0  0  0  0  0  0  0  0
    0.6143   -2.1975    0.4751 H   0  0  0  0  0  0  0  0  0  0  0  0
    2.5911   -0.7185   -0.7869 H   0  0  0  0  0  0  0  0  0  0  0  0
    2.3350   -0.8152    1.0426 H   0  0  0  0  0  0  0  0  0  0  0  0
    1.3040    1.2326   -0.9191 H   0  0  0  0  0  0  0  0  0  0  0  0
    2.0097    1.5515    0.6863 H   0  0  0  0  0  0  0  0  0  0  0  0
   -0.0418    0.7920    1.8321 H   0  0  0  0  0  0  0  0  0  0  0  0
   -1.9117    1.7610    0.5125 H   0  0  0  0  0  0  0  0  0  0  0  0
   -0.4865    2.4795   -0.4473 H   0  0  0  0  0  0  0  0  0  0  0  0
   -2.0877    0.2778   -1.3357 H   0  0  0  0  0  0  0  0  0  0  0  0
   -0.3885    0.5375   -1.9043 H   0  0  0  0  0  0  0  0  0  0  0  0
  1  2  2  0
  2  3  1  0
  3  4  1  0
  4  5  1  0
  5  6  1  0
  6  7  1  0
  7  8  1  0
  8  9  1  0
  7  3  1  0
  9  3  1  0
  2 10  1  0
  4 11  1  0
  4 12  1  0
  5 13  1  0
  5 14  1  0
  6 15  1  0
  6 16  1  0
  7 17  1  0
  8 18  1  0
  8 19  1  0
  9 20  1  0
  9 21  1  0
M  END
