
     RDKit          3D

 17 19  0  0  0  0  0  0  0  0999 V2000
   -3.2871   -0.0883   -0.4639 O   0  0  0  0  0  0  0  0  0  0  0  0
   -2.3523   -0.0487    0.3266 C   0  0  0  0  0  0  0  0  0  0  0  0
   -1.0116    0.2439   -0.2528 C   0  0  0  0  0  0  0  0  0  0  0  0
    0.0508    0.5944    0.7800 C   0  0  0  0  0  0  0  0  0  0  0  0
    1.1337    1.3814    0.1124 C   0  0  0  0  0  0  0  0  0  0  0  0
    1.8256    0.5657   -0.6724 C   0  0  0  0  0  0  0  0  0  0  0  0
    1.2784   -0.8144   -0.5994 C   0  0  0  0  0  0  0  0  0  0  0  0
   -0.1860   -0.9503   -0.6162 C   0  0  0  0  0  0  0  0  0  0  0  0
    0.5311   -0.7971    0.6670 C   0  0  0  0  0  0  0  0  0  0  0  0
   -2.5138   -0.2189    1.3757 H   0  0  0  0  0  0  0  0  0  0  0  0
   -1.0283    0.9690   -1.0980 H   0  0  0  0  0  0  0  0  0  0  0  0
   -0.3052    0.9670    1.7313 H   0  0  0  0  0  0  0  0  0  0  0  0
    1.3385    2.4324    0.2313 H   0  0  0  0  0  0  0  0  0  0  0  0
    2.6789    0.8561   -1.2894 H   0  0  0  0  0  0  0  0  0  0  0  0
    1.9560   -1.6700   -0.7861 H   0  0  0  0  0  0  0  0  0  0  0  0
   -0.6854   -1.9019   -0.8980 H   0  0  0  0  0  0  0  0  0  0  0  0
    0.5768   -1.5203    1.4519 H   0  0  0  0  0  0  0  0  0  0  0  0
  1  2  2  0
  2  3  1  0
  3  4  1  0
  4  5  1  0
  5  6  2  0
  6  7  1  0
  7  8  1  0
  8  9  1  0
  8  3  1  0
  9  4  1  0
  9  7  1  0
  2 10  1  0
  3 11  1  0
  4 12  1  0
  5 13  1  0
  6 14  1  0
  7 15  1  0
  8 16  1  0
  9 17  1  0
M  END
