
     RDKit          3D

 15 16  0  0  0  0  0  0  0  0999 V2000
    2.4260   -1.2595    0.1219 O   0  0  0  0  0  0  0  0  0  0  0  0
    2.4236   -0.0749    0.3971 C   0  0  0  0  0  0  0  0  0  0  0  0
    1.1424    0.6605    0.3898 C   0  0  0  0  0  0  0  0  0  0  0  0
    0.0153   -0.2366    0.0241 C   0  0  0  0  0  0  0  0  0  0  0  0
    0.0916   -0.8406   -1.2216 O   0  0  0  0  0  0  0  0  0  0  0  0
   -0.9136    0.0784   -1.1050 C   0  0  0  0  0  0  0  0  0  0  0  0
   -2.0846   -0.3494   -0.2556 C   0  0  0  0  0  0  0  0  0  0  0  0
   -1.1439   -0.4421    0.8880 C   0  0  0  0  0  0  0  0  0  0  0  0
   -1.2802   -0.6196    2.0792 O   0  0  0  0  0  0  0  0  0  0  0  0
    3.3738    0.3870    0.6369 H   0  0  0  0  0  0  0  0  0  0  0  0
    1.2077    1.5592   -0.2819 H   0  0  0  0  0  0  0  0  0  0  0  0
    0.9686    1.0028    1.4510 H   0  0  0  0  0  0  0  0  0  0  0  0
   -0.8477    1.0916   -1.4974 H   0  0  0  0  0  0  0  0  0  0  0  0
   -2.4705   -1.3204   -0.6285 H   0  0  0  0  0  0  0  0  0  0  0  0
   -2.9085    0.3636   -0.1581 H   0  0  0  0  0  0  0  0  0  0  0  0
  1  2  2  0
  2  3  1  0
  3  4  1  0
  4  5  1  0
  5  6  1  0
  6  7  1  0
  7  8  1  0
  8  9  2  0
  6  4  1  0
  8  4  1  0
  2 10  1  0
  3 11  1  0
  3 12  1  0
  6 13  1  0
  7 14  1  0
  7 15  1  0
M  END
