
     RDKit          3D

 17 18  0  0  0  0  0  0  0  0999 V2000
    0.1292    2.4769   -0.4628 O   0  0  0  0  0  0  0  0  0  0  0  0
    0.0192    1.3408   -0.8815 C   0  0  0  0  0  0  0  0  0  0  0  0
   -0.1822    0.2362    0.0414 C   0  0  0  0  0  0  0  0  0  0  0  0
   -1.5949    0.0367    0.4809 C   0  0  0  0  0  0  0  0  0  0  0  0
   -2.3834   -0.2183   -0.6538 O   0  0  0  0  0  0  0  0  0  0  0  0
    0.5457   -1.0488   -0.2390 C   0  0  0  0  0  0  0  0  0  0  0  0
    1.8205   -0.3157   -0.0399 C   0  0  0  0  0  0  0  0  0  0  0  0
    0.8837    0.0864    1.0664 C   0  0  0  0  0  0  0  0  0  0  0  0
    0.5250   -1.2495    1.1354 O   0  0  0  0  0  0  0  0  0  0  0  0
    0.0767    1.1910   -1.9495 H   0  0  0  0  0  0  0  0  0  0  0  0
   -1.7190   -0.8367    1.1410 H   0  0  0  0  0  0  0  0  0  0  0  0
   -2.0363    0.9008    1.0030 H   0  0  0  0  0  0  0  0  0  0  0  0
   -2.2346   -1.1280   -1.0074 H   0  0  0  0  0  0  0  0  0  0  0  0
    0.3135   -1.7247   -0.9473 H   0  0  0  0  0  0  0  0  0  0  0  0
    2.0320    0.4682   -0.7971 H   0  0  0  0  0  0  0  0  0  0  0  0
    2.7056   -0.9122    0.2733 H   0  0  0  0  0  0  0  0  0  0  0  0
    1.0991    0.6970    1.8372 H   0  0  0  0  0  0  0  0  0  0  0  0
  1  2  2  0
  2  3  1  0
  3  4  1  0
  4  5  1  0
  3  6  1  0
  6  7  1  0
  7  8  1  0
  8  9  1  0
  8  3  1  0
  9  6  1  0
  2 10  1  0
  4 11  1  0
  4 12  1  0
  5 13  1  0
  6 14  1  0
  7 15  1  0
  7 16  1  0
  8 17  1  0
M  END
