
     RDKit          3D

 15 16  0  0  0  0  0  0  0  0999 V2000
    2.3428    0.2052   -0.7757 O   0  0  0  0  0  0  0  0  0  0  0  0
    1.4538    0.7290   -0.1303 C   0  0  0  0  0  0  0  0  0  0  0  0
    0.5718   -0.1435    0.7255 C   0  0  0  0  0  0  0  0  0  0  0  0
    0.6137   -1.5143    0.4424 C   0  0  0  0  0  0  0  0  0  0  0  0
   -0.5618   -0.9378   -0.0557 C   0  0  0  0  0  0  0  0  0  0  0  0
   -0.9275    0.2912   -0.8159 C   0  0  0  0  0  0  0  0  0  0  0  0
   -1.1124    1.2134    0.3411 C   0  0  0  0  0  0  0  0  0  0  0  0
   -1.7780    2.2598    0.4135 O   0  0  0  0  0  0  0  0  0  0  0  0
   -0.3685    0.6644    1.3796 O   0  0  0  0  0  0  0  0  0  0  0  0
    1.3727    1.7896   -0.2282 H   0  0  0  0  0  0  0  0  0  0  0  0
    0.5898   -2.2236    1.3229 H   0  0  0  0  0  0  0  0  0  0  0  0
    1.3683   -1.9090   -0.2859 H   0  0  0  0  0  0  0  0  0  0  0  0
   -1.4833   -1.1953    0.5606 H   0  0  0  0  0  0  0  0  0  0  0  0
   -0.1902    0.6363   -1.5316 H   0  0  0  0  0  0  0  0  0  0  0  0
   -1.8912    0.1345   -1.3622 H   0  0  0  0  0  0  0  0  0  0  0  0
  1  2  2  0
  2  3  1  0
  3  4  1  0
  4  5  1  0
  5  6  1  0
  6  7  1  0
  7  8  2  0
  7  9  1  0
  5  3  1  0
  9  3  1  0
  2 10  1  0
  4 11  1  0
  4 12  1  0
  5 13  1  0
  6 14  1  0
  6 15  1  0
M  END
