
     RDKit          3D

 16 16  0  0  0  0  0  0  0  0999 V2000
   -2.2952   -1.3856    0.5968 O   0  0  0  0  0  0  0  0  0  0  0  0
   -2.1297   -0.3663   -0.0186 C   0  0  0  0  0  0  0  0  0  0  0  0
   -0.9111   -0.0681   -0.8320 C   0  0  0  0  0  0  0  0  0  0  0  0
   -0.2838    1.2101   -0.4694 C   0  0  0  0  0  0  0  0  0  0  0  0
    0.8946    1.2828    0.1352 C   0  0  0  0  0  0  0  0  0  0  0  0
    1.6553    0.0539    0.4836 C   0  0  0  0  0  0  0  0  0  0  0  0
    0.7479   -1.1493    0.3602 C   0  0  0  0  0  0  0  0  0  0  0  0
    0.0060   -1.0854   -0.8036 O   0  0  0  0  0  0  0  0  0  0  0  0
   -2.9172    0.3787    0.0234 H   0  0  0  0  0  0  0  0  0  0  0  0
   -1.2626    0.0274   -1.8972 H   0  0  0  0  0  0  0  0  0  0  0  0
   -0.8371    2.1270   -0.7221 H   0  0  0  0  0  0  0  0  0  0  0  0
    1.3097    2.2498    0.3792 H   0  0  0  0  0  0  0  0  0  0  0  0
    2.4546   -0.0666   -0.2844 H   0  0  0  0  0  0  0  0  0  0  0  0
    2.0827    0.1137    1.5078 H   0  0  0  0  0  0  0  0  0  0  0  0
    1.3682   -2.0850    0.2938 H   0  0  0  0  0  0  0  0  0  0  0  0
    0.1180   -1.2371    1.2475 H   0  0  0  0  0  0  0  0  0  0  0  0
  1  2  2  0
  2  3  1  0
  3  4  1  0
  4  5  2  0
  5  6  1  0
  6  7  1  0
  7  8  1  0
  8  3  1  0
  2  9  1  0
  3 10  1  0
  4 11  1  0
  5 12  1  0
  6 13  1  0
  6 14  1  0
  7 15  1  0
  7 16  1  0
M  END
