
     RDKit          3D

 15 16  0  0  0  0  0  0  0  0999 V2000
   -2.3917   -0.0051    1.2184 O   0  0  0  0  0  0  0  0  0  0  0  0
   -2.3397   -0.5384    0.1257 C   0  0  0  0  0  0  0  0  0  0  0  0
   -1.1020   -0.5531   -0.6993 C   0  0  0  0  0  0  0  0  0  0  0  0
   -0.3299    0.6264   -0.6725 C   0  0  0  0  0  0  0  0  0  0  0  0
    0.3456    1.3375    0.2791 O   0  0  0  0  0  0  0  0  0  0  0  0
    1.6807    0.9613   -0.0721 C   0  0  0  0  0  0  0  0  0  0  0  0
    1.5452   -0.4842   -0.4242 C   0  0  0  0  0  0  0  0  0  0  0  0
    2.3973   -1.1962   -0.8688 O   0  0  0  0  0  0  0  0  0  0  0  0
    0.1686   -0.7676   -0.0948 C   0  0  0  0  0  0  0  0  0  0  0  0
   -3.2313   -1.0150   -0.2481 H   0  0  0  0  0  0  0  0  0  0  0  0
   -1.2560   -1.0903   -1.6674 H   0  0  0  0  0  0  0  0  0  0  0  0
    0.1188    0.9125   -1.6763 H   0  0  0  0  0  0  0  0  0  0  0  0
    1.9497    1.5929   -0.9172 H   0  0  0  0  0  0  0  0  0  0  0  0
    2.3414    1.0730    0.8159 H   0  0  0  0  0  0  0  0  0  0  0  0
    0.1032   -0.8537    1.0393 H   0  0  0  0  0  0  0  0  0  0  0  0
  1  2  2  0
  2  3  1  0
  3  4  1  0
  4  5  1  0
  5  6  1  0
  6  7  1  0
  7  8  2  0
  7  9  1  0
  9  3  1  0
  9  4  1  0
  2 10  1  0
  3 11  1  0
  4 12  1  0
  6 13  1  0
  6 14  1  0
  9 15  1  0
M  END
