
     RDKit          3D

 16 16  0  0  0  0  0  0  0  0999 V2000
   -3.3158   -0.3201   -0.1707 O   0  0  0  0  0  0  0  0  0  0  0  0
   -2.4343    0.5711   -0.1103 C   0  0  0  0  0  0  0  0  0  0  0  0
   -1.0329    0.2325    0.0993 C   0  0  0  0  0  0  0  0  0  0  0  0
   -0.0445    1.1213    0.1741 C   0  0  0  0  0  0  0  0  0  0  0  0
    1.2454    0.4144    0.3927 C   0  0  0  0  0  0  0  0  0  0  0  0
    2.3015    1.0146   -0.2572 O   0  0  0  0  0  0  0  0  0  0  0  0
    0.9401   -0.9358   -0.2627 C   0  0  0  0  0  0  0  0  0  0  0  0
   -0.4782   -1.1420    0.2625 C   0  0  0  0  0  0  0  0  0  0  0  0
   -2.7530    1.5963   -0.2194 H   0  0  0  0  0  0  0  0  0  0  0  0
   -0.0965    2.2060    0.0968 H   0  0  0  0  0  0  0  0  0  0  0  0
    1.4307    0.2428    1.4763 H   0  0  0  0  0  0  0  0  0  0  0  0
    3.1332    0.7501    0.2486 H   0  0  0  0  0  0  0  0  0  0  0  0
    0.8889   -0.7677   -1.3411 H   0  0  0  0  0  0  0  0  0  0  0  0
    1.6285   -1.7192    0.0597 H   0  0  0  0  0  0  0  0  0  0  0  0
   -0.3857   -1.3711    1.3588 H   0  0  0  0  0  0  0  0  0  0  0  0
   -1.0274   -1.8932   -0.2952 H   0  0  0  0  0  0  0  0  0  0  0  0
  1  2  2  0
  2  3  1  0
  3  4  2  0
  4  5  1  0
  5  6  1  0
  5  7  1  0
  7  8  1  0
  8  3  1  0
  2  9  1  0
  4 10  1  0
  5 11  1  0
  6 12  1  0
  7 13  1  0
  7 14  1  0
  8 15  1  0
  8 16  1  0
M  END
