
     RDKit          3D

 16 17  0  0  0  0  0  0  0  0999 V2000
   -2.3177   -0.9861    1.2185 O   0  0  0  0  0  0  0  0  0  0  0  0
   -1.9543   -0.5503    0.1381 C   0  0  0  0  0  0  0  0  0  0  0  0
   -0.5827   -0.0533   -0.1036 C   0  0  0  0  0  0  0  0  0  0  0  0
    0.3935   -0.9429   -0.8422 C   0  0  0  0  0  0  0  0  0  0  0  0
    1.6613   -0.7230   -0.0943 C   0  0  0  0  0  0  0  0  0  0  0  0
    1.5278    0.1930    0.8386 C   0  0  0  0  0  0  0  0  0  0  0  0
    0.1622    0.7401    0.8776 C   0  0  0  0  0  0  0  0  0  0  0  0
   -0.3654    1.4169   -0.3317 C   0  0  0  0  0  0  0  0  0  0  0  0
   -2.6547   -0.5202   -0.6868 H   0  0  0  0  0  0  0  0  0  0  0  0
    0.0484   -1.9849   -0.8200 H   0  0  0  0  0  0  0  0  0  0  0  0
    0.4803   -0.6121   -1.8832 H   0  0  0  0  0  0  0  0  0  0  0  0
    2.5744   -1.2579   -0.3024 H   0  0  0  0  0  0  0  0  0  0  0  0
    2.3246    0.5114    1.5027 H   0  0  0  0  0  0  0  0  0  0  0  0
   -0.3298    0.9827    1.8371 H   0  0  0  0  0  0  0  0  0  0  0  0
    0.3064    1.7497   -1.1411 H   0  0  0  0  0  0  0  0  0  0  0  0
   -1.2743    2.0369   -0.2073 H   0  0  0  0  0  0  0  0  0  0  0  0
  1  2  2  0
  2  3  1  0
  3  4  1  0
  4  5  1  0
  5  6  2  0
  6  7  1  0
  7  8  1  0
  7  3  1  0
  8  3  1  0
  2  9  1  0
  4 10  1  0
  4 11  1  0
  5 12  1  0
  6 13  1  0
  7 14  1  0
  8 15  1  0
  8 16  1  0
M  END
