
     RDKit          3D

 19 20  0  0  0  0  0  0  0  0999 V2000
   -2.3468   -1.0968    1.0346 O   0  0  0  0  0  0  0  0  0  0  0  0
   -1.7070   -0.1108    1.3783 C   0  0  0  0  0  0  0  0  0  0  0  0
   -0.5910    0.2866    0.4505 C   0  0  0  0  0  0  0  0  0  0  0  0
   -0.6364    1.5973   -0.2010 C   0  0  0  0  0  0  0  0  0  0  0  0
   -1.0484    0.4487   -1.0286 C   0  0  0  0  0  0  0  0  0  0  0  0
   -0.1356   -0.6785   -1.3619 C   0  0  0  0  0  0  0  0  0  0  0  0
    0.3440   -0.7965    0.0653 C   0  0  0  0  0  0  0  0  0  0  0  0
    1.8189   -0.4806    0.1372 C   0  0  0  0  0  0  0  0  0  0  0  0
    2.2386   -0.1298    1.4050 O   0  0  0  0  0  0  0  0  0  0  0  0
   -1.9213    0.4364    2.2762 H   0  0  0  0  0  0  0  0  0  0  0  0
    0.3149    2.1449   -0.3726 H   0  0  0  0  0  0  0  0  0  0  0  0
   -1.4552    2.2735    0.1213 H   0  0  0  0  0  0  0  0  0  0  0  0
   -2.1017    0.2964   -1.2448 H   0  0  0  0  0  0  0  0  0  0  0  0
    0.6458   -0.4469   -2.1032 H   0  0  0  0  0  0  0  0  0  0  0  0
   -0.6659   -1.6010   -1.6726 H   0  0  0  0  0  0  0  0  0  0  0  0
    0.1383   -1.7586    0.5561 H   0  0  0  0  0  0  0  0  0  0  0  0
    2.3511   -1.4363   -0.1460 H   0  0  0  0  0  0  0  0  0  0  0  0
    2.1258    0.2597   -0.6313 H   0  0  0  0  0  0  0  0  0  0  0  0
    2.6317    0.7923    1.3372 H   0  0  0  0  0  0  0  0  0  0  0  0
  1  2  2  0
  2  3  1  0
  3  4  1  0
  4  5  1  0
  5  6  1  0
  6  7  1  0
  7  8  1  0
  8  9  1  0
  5  3  1  0
  7  3  1  0
  2 10  1  0
  4 11  1  0
  4 12  1  0
  5 13  1  0
  6 14  1  0
  6 15  1  0
  7 16  1  0
  8 17  1  0
  8 18  1  0
  9 19  1  0
M  END
