
     RDKit          3D

 17 18  0  0  0  0  0  0  0  0999 V2000
   -2.0726   -0.0332    1.4492 O   0  0  0  0  0  0  0  0  0  0  0  0
   -2.0349    0.6449    0.4373 C   0  0  0  0  0  0  0  0  0  0  0  0
   -0.8752    0.4840   -0.5010 C   0  0  0  0  0  0  0  0  0  0  0  0
    0.2147    1.4212   -0.0383 C   0  0  0  0  0  0  0  0  0  0  0  0
    1.2051    0.8488    0.6328 C   0  0  0  0  0  0  0  0  0  0  0  0
    1.2441   -0.6355    0.6040 C   0  0  0  0  0  0  0  0  0  0  0  0
    1.0167   -1.1467   -0.8029 C   0  0  0  0  0  0  0  0  0  0  0  0
   -0.3950   -0.9213   -0.3853 C   0  0  0  0  0  0  0  0  0  0  0  0
   -0.0205   -1.1651    0.9355 O   0  0  0  0  0  0  0  0  0  0  0  0
   -2.8451    1.3360    0.2618 H   0  0  0  0  0  0  0  0  0  0  0  0
   -1.1436    0.7809   -1.5215 H   0  0  0  0  0  0  0  0  0  0  0  0
    0.1795    2.4737   -0.2439 H   0  0  0  0  0  0  0  0  0  0  0  0
    1.9489    1.3863    1.1735 H   0  0  0  0  0  0  0  0  0  0  0  0
    2.0260   -1.1214    1.1815 H   0  0  0  0  0  0  0  0  0  0  0  0
    1.2750   -2.1987   -0.8824 H   0  0  0  0  0  0  0  0  0  0  0  0
    1.4136   -0.4783   -1.6053 H   0  0  0  0  0  0  0  0  0  0  0  0
   -1.1366   -1.6754   -0.6950 H   0  0  0  0  0  0  0  0  0  0  0  0
  1  2  2  0
  2  3  1  0
  3  4  1  0
  4  5  2  0
  5  6  1  0
  6  7  1  0
  7  8  1  0
  8  9  1  0
  8  3  1  0
  9  6  1  0
  2 10  1  0
  3 11  1  0
  4 12  1  0
  5 13  1  0
  6 14  1  0
  7 15  1  0
  7 16  1  0
  8 17  1  0
M  END
