
     RDKit          3D

 16 17  0  0  0  0  0  0  0  0999 V2000
    2.5781    0.2780    0.4575 O   0  0  0  0  0  0  0  0  0  0  0  0
    1.8961   -0.5269   -0.1551 C   0  0  0  0  0  0  0  0  0  0  0  0
    0.6410   -0.0701   -0.8176 C   0  0  0  0  0  0  0  0  0  0  0  0
    0.0486    1.0699    0.0109 C   0  0  0  0  0  0  0  0  0  0  0  0
    0.9400    1.7071    0.8403 O   0  0  0  0  0  0  0  0  0  0  0  0
   -0.8396    0.0314    0.6486 C   0  0  0  0  0  0  0  0  0  0  0  0
   -1.8690   -0.5240   -0.2672 C   0  0  0  0  0  0  0  0  0  0  0  0
   -0.4968   -0.9802   -0.4959 C   0  0  0  0  0  0  0  0  0  0  0  0
    2.2603   -1.5482   -0.1760 H   0  0  0  0  0  0  0  0  0  0  0  0
    0.7679    0.1855   -1.8969 H   0  0  0  0  0  0  0  0  0  0  0  0
   -0.5457    1.7767   -0.6101 H   0  0  0  0  0  0  0  0  0  0  0  0
    0.4684    1.9121    1.6869 H   0  0  0  0  0  0  0  0  0  0  0  0
   -0.6832   -0.3104    1.6625 H   0  0  0  0  0  0  0  0  0  0  0  0
   -2.5680   -1.2397    0.1858 H   0  0  0  0  0  0  0  0  0  0  0  0
   -2.3694    0.2404   -0.9043 H   0  0  0  0  0  0  0  0  0  0  0  0
   -0.2286   -2.0016   -0.1692 H   0  0  0  0  0  0  0  0  0  0  0  0
  1  2  2  0
  2  3  1  0
  3  4  1  0
  4  5  1  0
  4  6  1  0
  6  7  1  0
  7  8  1  0
  8  3  1  0
  8  6  1  0
  2  9  1  0
  3 10  1  0
  4 11  1  0
  5 12  1  0
  6 13  1  0
  7 14  1  0
  7 15  1  0
  8 16  1  0
M  END
