
     RDKit          3D

 15 16  0  0  0  0  0  0  0  0999 V2000
    1.3573    1.2396    2.2110 O   0  0  0  0  0  0  0  0  0  0  0  0
    1.4458    0.9580    1.0378 C   0  0  0  0  0  0  0  0  0  0  0  0
    0.6093   -0.0465    0.3607 C   0  0  0  0  0  0  0  0  0  0  0  0
    1.3493   -1.0160   -0.4451 C   0  0  0  0  0  0  0  0  0  0  0  0
    2.2129   -0.6234   -1.1989 O   0  0  0  0  0  0  0  0  0  0  0  0
   -0.3327   -0.6924    1.1562 O   0  0  0  0  0  0  0  0  0  0  0  0
   -1.4459   -0.4333    0.4109 C   0  0  0  0  0  0  0  0  0  0  0  0
   -1.4750   -0.2554   -1.0424 C   0  0  0  0  0  0  0  0  0  0  0  0
   -0.5689    0.6254   -0.3101 C   0  0  0  0  0  0  0  0  0  0  0  0
    2.1862    1.4743    0.4404 H   0  0  0  0  0  0  0  0  0  0  0  0
    1.1654   -2.0712   -0.4036 H   0  0  0  0  0  0  0  0  0  0  0  0
   -2.3033   -0.0380    1.0080 H   0  0  0  0  0  0  0  0  0  0  0  0
   -2.3879    0.2052   -1.4647 H   0  0  0  0  0  0  0  0  0  0  0  0
   -1.0089   -0.9867   -1.7463 H   0  0  0  0  0  0  0  0  0  0  0  0
   -0.8036    1.6604   -0.0139 H   0  0  0  0  0  0  0  0  0  0  0  0
  1  2  2  0
  2  3  1  0
  3  4  1  0
  4  5  2  0
  3  6  1  0
  6  7  1  0
  7  8  1  0
  8  9  1  0
  9  3  1  0
  9  7  1  0
  2 10  1  0
  4 11  1  0
  7 12  1  0
  8 13  1  0
  8 14  1  0
  9 15  1  0
M  END
