
     RDKit          3D

 18 18  0  0  0  0  0  0  0  0999 V2000
    2.8023    0.5068   -1.0910 O   0  0  0  0  0  0  0  0  0  0  0  0
    1.6056    0.2692   -0.9221 C   0  0  0  0  0  0  0  0  0  0  0  0
    1.0328    0.1812    0.4159 C   0  0  0  0  0  0  0  0  0  0  0  0
    0.0431    1.2663    0.7402 C   0  0  0  0  0  0  0  0  0  0  0  0
   -1.1320    1.1697   -0.1471 C   0  0  0  0  0  0  0  0  0  0  0  0
   -1.4838   -0.0013   -0.6194 C   0  0  0  0  0  0  0  0  0  0  0  0
   -0.8224   -1.3005   -0.3651 C   0  0  0  0  0  0  0  0  0  0  0  0
    0.2671   -1.1250    0.6512 C   0  0  0  0  0  0  0  0  0  0  0  0
    1.0074    0.1301   -1.8322 H   0  0  0  0  0  0  0  0  0  0  0  0
    1.8350    0.2097    1.1657 H   0  0  0  0  0  0  0  0  0  0  0  0
    0.4896    2.2744    0.7684 H   0  0  0  0  0  0  0  0  0  0  0  0
   -0.3181    1.0390    1.7874 H   0  0  0  0  0  0  0  0  0  0  0  0
   -1.6936    2.0911   -0.3960 H   0  0  0  0  0  0  0  0  0  0  0  0
   -2.3652   -0.0179   -1.2747 H   0  0  0  0  0  0  0  0  0  0  0  0
   -1.5500   -2.0391    0.0776 H   0  0  0  0  0  0  0  0  0  0  0  0
   -0.4327   -1.6698   -1.3403 H   0  0  0  0  0  0  0  0  0  0  0  0
    0.9441   -1.9848    0.7363 H   0  0  0  0  0  0  0  0  0  0  0  0
   -0.2293   -0.9993    1.6450 H   0  0  0  0  0  0  0  0  0  0  0  0
  1  2  2  0
  2  3  1  0
  3  4  1  0
  4  5  1  0
  5  6  2  0
  6  7  1  0
  7  8  1  0
  8  3  1  0
  2  9  1  0
  3 10  1  0
  4 11  1  0
  4 12  1  0
  5 13  1  0
  6 14  1  0
  7 15  1  0
  7 16  1  0
  8 17  1  0
  8 18  1  0
M  END
