
     RDKit          3D

 15 16  0  0  0  0  0  0  0  0999 V2000
   -2.7539   -0.1405   -0.8967 O   0  0  0  0  0  0  0  0  0  0  0  0
   -1.5571   -0.1925   -0.9793 C   0  0  0  0  0  0  0  0  0  0  0  0
   -0.7338    0.0468    0.2200 C   0  0  0  0  0  0  0  0  0  0  0  0
   -1.4518    0.3147    1.3503 O   0  0  0  0  0  0  0  0  0  0  0  0
    0.0713   -1.1991    0.4537 C   0  0  0  0  0  0  0  0  0  0  0  0
    1.3503   -0.9790    0.2078 C   0  0  0  0  0  0  0  0  0  0  0  0
    1.6016    0.4055   -0.2170 C   0  0  0  0  0  0  0  0  0  0  0  0
    0.9176    0.8433   -1.3631 O   0  0  0  0  0  0  0  0  0  0  0  0
    0.3062    1.0743   -0.1099 C   0  0  0  0  0  0  0  0  0  0  0  0
   -1.0840   -0.4111   -1.9159 H   0  0  0  0  0  0  0  0  0  0  0  0
   -1.0552    1.0368    1.9154 H   0  0  0  0  0  0  0  0  0  0  0  0
   -0.3887   -2.1224    0.7791 H   0  0  0  0  0  0  0  0  0  0  0  0
    2.1087   -1.7598    0.3177 H   0  0  0  0  0  0  0  0  0  0  0  0
    2.4896    0.9559    0.1205 H   0  0  0  0  0  0  0  0  0  0  0  0
    0.1791    2.1272    0.1173 H   0  0  0  0  0  0  0  0  0  0  0  0
  1  2  2  0
  2  3  1  0
  3  4  1  0
  3  5  1  0
  5  6  2  0
  6  7  1  0
  7  8  1  0
  8  9  1  0
  9  3  1  0
  9  7  1  0
  2 10  1  0
  4 11  1  0
  5 12  1  0
  6 13  1  0
  7 14  1  0
  9 15  1  0
M  END
