
     RDKit          3D

 12 11  0  0  0  0  0  0  0  0999 V2000
    2.8204    0.2233    0.9231 O   0  0  0  0  0  0  0  0  0  0  0  0
    2.8739   -0.4623   -0.1199 C   0  0  0  0  0  0  0  0  0  0  0  0
    1.6345   -0.8329   -0.7729 C   0  0  0  0  0  0  0  0  0  0  0  0
    1.7173   -1.5230   -1.8209 O   0  0  0  0  0  0  0  0  0  0  0  0
    0.3627   -0.4285   -0.2449 C   0  0  0  0  0  0  0  0  0  0  0  0
   -0.7226   -0.0662    0.1929 C   0  0  0  0  0  0  0  0  0  0  0  0
   -2.0308    0.3573    0.6958 C   0  0  0  0  0  0  0  0  0  0  0  0
   -2.4823    1.3499   -0.1949 O   0  0  0  0  0  0  0  0  0  0  0  0
    3.8332   -0.7568   -0.5021 H   0  0  0  0  0  0  0  0  0  0  0  0
   -2.7545   -0.4786    0.7537 H   0  0  0  0  0  0  0  0  0  0  0  0
   -1.9658    0.7906    1.7063 H   0  0  0  0  0  0  0  0  0  0  0  0
   -3.2861    1.8272    0.1789 H   0  0  0  0  0  0  0  0  0  0  0  0
  1  2  2  0
  2  3  1  0
  3  4  2  0
  3  5  1  0
  5  6  3  0
  6  7  1  0
  7  8  1  0
  2  9  1  0
  7 10  1  0
  7 11  1  0
  8 12  1  0
M  END
