
     RDKit          3D

 13 14  0  0  0  0  0  0  0  0999 V2000
    2.5512    0.6822    0.6855 O   0  0  0  0  0  0  0  0  0  0  0  0
    1.9560   -0.3368    0.4033 C   0  0  0  0  0  0  0  0  0  0  0  0
    0.6022   -0.2494   -0.1880 C   0  0  0  0  0  0  0  0  0  0  0  0
   -0.0558   -1.4572   -0.5016 O   0  0  0  0  0  0  0  0  0  0  0  0
   -0.5763   -0.6292    0.5271 C   0  0  0  0  0  0  0  0  0  0  0  0
   -1.7078    0.2309    0.0529 C   0  0  0  0  0  0  0  0  0  0  0  0
   -1.1538    1.0828   -0.9120 O   0  0  0  0  0  0  0  0  0  0  0  0
    0.2271    0.9490   -0.9710 C   0  0  0  0  0  0  0  0  0  0  0  0
    0.9799    1.7356   -1.5941 O   0  0  0  0  0  0  0  0  0  0  0  0
    2.3740   -1.3180    0.5656 H   0  0  0  0  0  0  0  0  0  0  0  0
   -0.5184   -0.9862    1.5621 H   0  0  0  0  0  0  0  0  0  0  0  0
   -2.2495    0.7488    0.8518 H   0  0  0  0  0  0  0  0  0  0  0  0
   -2.4287   -0.4526   -0.4817 H   0  0  0  0  0  0  0  0  0  0  0  0
  1  2  2  0
  2  3  1  0
  3  4  1  0
  4  5  1  0
  5  6  1  0
  6  7  1  0
  7  8  1  0
  8  9  2  0
  5  3  1  0
  8  3  1  0
  2 10  1  0
  5 11  1  0
  6 12  1  0
  6 13  1  0
M  END
