
     RDKit          3D

 21 21  0  0  0  0  0  0  0  0999 V2000
    2.6598    1.2940    0.7367 O   0  0  0  0  0  0  0  0  0  0  0  0
    1.8333    0.5248    1.1708 C   0  0  0  0  0  0  0  0  0  0  0  0
    1.6299   -0.8169    0.5812 C   0  0  0  0  0  0  0  0  0  0  0  0
    0.8107   -0.6351   -0.6787 C   0  0  0  0  0  0  0  0  0  0  0  0
   -0.5236   -0.0079   -0.4601 C   0  0  0  0  0  0  0  0  0  0  0  0
   -1.4756   -0.7245    0.4423 C   0  0  0  0  0  0  0  0  0  0  0  0
   -0.9339   -0.8494    1.6968 O   0  0  0  0  0  0  0  0  0  0  0  0
   -0.6157    1.4710   -0.5415 C   0  0  0  0  0  0  0  0  0  0  0  0
   -1.0845    0.6528   -1.7187 C   0  0  0  0  0  0  0  0  0  0  0  0
    1.2280    0.8201    2.0082 H   0  0  0  0  0  0  0  0  0  0  0  0
    1.2201   -1.5700    1.2621 H   0  0  0  0  0  0  0  0  0  0  0  0
    2.6581   -1.1959    0.2933 H   0  0  0  0  0  0  0  0  0  0  0  0
    1.3779   -0.1043   -1.4666 H   0  0  0  0  0  0  0  0  0  0  0  0
    0.6216   -1.6747   -1.0798 H   0  0  0  0  0  0  0  0  0  0  0  0
   -1.6647   -1.7580    0.0626 H   0  0  0  0  0  0  0  0  0  0  0  0
   -2.4759   -0.2439    0.4839 H   0  0  0  0  0  0  0  0  0  0  0  0
   -1.5755   -0.5182    2.3607 H   0  0  0  0  0  0  0  0  0  0  0  0
   -1.4207    2.0265   -0.0174 H   0  0  0  0  0  0  0  0  0  0  0  0
    0.3474    2.0103   -0.6016 H   0  0  0  0  0  0  0  0  0  0  0  0
   -2.1714    0.5661   -1.9179 H   0  0  0  0  0  0  0  0  0  0  0  0
   -0.4452    0.7333   -2.6162 H   0  0  0  0  0  0  0  0  0  0  0  0
  1  2  2  0
  2  3  1  0
  3  4  1  0
  4  5  1  0
  5  6  1  0
  6  7  1  0
  5  8  1  0
  8  9  1  0
  9  5  1  0
  2 10  1  0
  3 11  1  0
  3 12  1  0
  4 13  1  0
  4 14  1  0
  6 15  1  0
  6 16  1  0
  7 17  1  0
  8 18  1  0
  8 19  1  0
  9 20  1  0
  9 21  1  0
M  END
