
     RDKit          3D

 19 20  0  0  0  0  0  0  0  0999 V2000
    2.2493    1.4858    0.3152 O   0  0  0  0  0  0  0  0  0  0  0  0
    2.3811    0.6007   -0.5036 C   0  0  0  0  0  0  0  0  0  0  0  0
    1.4029   -0.5108   -0.5689 C   0  0  0  0  0  0  0  0  0  0  0  0
    0.3162   -0.3725    0.4444 C   0  0  0  0  0  0  0  0  0  0  0  0
   -0.6535   -1.5596    0.3166 C   0  0  0  0  0  0  0  0  0  0  0  0
   -1.7616   -0.5662    0.6182 C   0  0  0  0  0  0  0  0  0  0  0  0
   -0.8272    0.5054    0.1508 C   0  0  0  0  0  0  0  0  0  0  0  0
   -1.0049    1.8350   -0.0351 C   0  0  0  0  0  0  0  0  0  0  0  0
   -0.8906    0.9442   -1.1859 O   0  0  0  0  0  0  0  0  0  0  0  0
    3.2251    0.6548   -1.1708 H   0  0  0  0  0  0  0  0  0  0  0  0
    1.0257   -0.6376   -1.6021 H   0  0  0  0  0  0  0  0  0  0  0  0
    1.9871   -1.4479   -0.3376 H   0  0  0  0  0  0  0  0  0  0  0  0
    0.7257   -0.3727    1.4699 H   0  0  0  0  0  0  0  0  0  0  0  0
   -0.5237   -2.3341    1.0749 H   0  0  0  0  0  0  0  0  0  0  0  0
   -0.7734   -1.9132   -0.7293 H   0  0  0  0  0  0  0  0  0  0  0  0
   -1.9080   -0.4856    1.7186 H   0  0  0  0  0  0  0  0  0  0  0  0
   -2.6856   -0.7107    0.0281 H   0  0  0  0  0  0  0  0  0  0  0  0
   -0.2413    2.6046    0.0498 H   0  0  0  0  0  0  0  0  0  0  0  0
   -2.0434    2.2804   -0.0531 H   0  0  0  0  0  0  0  0  0  0  0  0
  1  2  2  0
  2  3  1  0
  3  4  1  0
  4  5  1  0
  5  6  1  0
  6  7  1  0
  7  8  1  0
  8  9  1  0
  7  4  1  0
  9  7  1  0
  2 10  1  0
  3 11  1  0
  3 12  1  0
  4 13  1  0
  5 14  1  0
  5 15  1  0
  6 16  1  0
  6 17  1  0
  8 18  1  0
  8 19  1  0
M  END
