
     RDKit          3D

 17 18  0  0  0  0  0  0  0  0999 V2000
    3.0664   -0.3655    0.0432 O   0  0  0  0  0  0  0  0  0  0  0  0
    1.9146   -0.3564   -0.4114 C   0  0  0  0  0  0  0  0  0  0  0  0
    0.9026    0.4421    0.2880 C   0  0  0  0  0  0  0  0  0  0  0  0
    0.0234   -0.4511    1.1375 C   0  0  0  0  0  0  0  0  0  0  0  0
   -1.2345   -0.6202    0.3464 C   0  0  0  0  0  0  0  0  0  0  0  0
   -1.0632   -1.6635   -0.5760 O   0  0  0  0  0  0  0  0  0  0  0  0
   -1.3530    0.6715   -0.4084 C   0  0  0  0  0  0  0  0  0  0  0  0
   -0.6995    0.6847   -1.6249 O   0  0  0  0  0  0  0  0  0  0  0  0
    0.0125    1.2340   -0.5991 C   0  0  0  0  0  0  0  0  0  0  0  0
    1.6304   -0.9083   -1.2941 H   0  0  0  0  0  0  0  0  0  0  0  0
    1.3841    1.1619    1.0088 H   0  0  0  0  0  0  0  0  0  0  0  0
   -0.1760   -0.0164    2.1321 H   0  0  0  0  0  0  0  0  0  0  0  0
    0.5726   -1.3913    1.3015 H   0  0  0  0  0  0  0  0  0  0  0  0
   -2.1005   -0.8521    0.9772 H   0  0  0  0  0  0  0  0  0  0  0  0
   -0.9219   -1.2953   -1.4860 H   0  0  0  0  0  0  0  0  0  0  0  0
   -2.1334    1.4032   -0.1657 H   0  0  0  0  0  0  0  0  0  0  0  0
    0.1754    2.3225   -0.6689 H   0  0  0  0  0  0  0  0  0  0  0  0
  1  2  2  0
  2  3  1  0
  3  4  1  0
  4  5  1  0
  5  6  1  0
  5  7  1  0
  7  8  1  0
  8  9  1  0
  9  3  1  0
  9  7  1  0
  2 10  1  0
  3 11  1  0
  4 12  1  0
  4 13  1  0
  5 14  1  0
  6 15  1  0
  7 16  1  0
  9 17  1  0
M  END
