
     RDKit          3D

 19 21  0  0  0  0  0  0  0  0999 V2000
   -1.0427    1.5225    1.7749 O   0  0  0  0  0  0  0  0  0  0  0  0
   -1.2132    1.6337    0.5817 C   0  0  0  0  0  0  0  0  0  0  0  0
   -0.5656    0.8330   -0.4600 C   0  0  0  0  0  0  0  0  0  0  0  0
   -1.3152   -0.4178   -0.8179 C   0  0  0  0  0  0  0  0  0  0  0  0
   -1.2035   -1.6558   -0.0138 C   0  0  0  0  0  0  0  0  0  0  0  0
    0.0397   -1.1734   -0.7153 C   0  0  0  0  0  0  0  0  0  0  0  0
    0.6314    0.0590   -0.1336 C   0  0  0  0  0  0  0  0  0  0  0  0
    2.0021    0.4690   -0.1931 C   0  0  0  0  0  0  0  0  0  0  0  0
    1.3249   -0.0207    1.1313 C   0  0  0  0  0  0  0  0  0  0  0  0
   -1.9241    2.4142    0.2720 H   0  0  0  0  0  0  0  0  0  0  0  0
   -0.4099    1.4507   -1.3931 H   0  0  0  0  0  0  0  0  0  0  0  0
   -1.8365   -0.4624   -1.7770 H   0  0  0  0  0  0  0  0  0  0  0  0
   -1.1080   -1.5857    1.1093 H   0  0  0  0  0  0  0  0  0  0  0  0
   -1.6966   -2.5400   -0.4068 H   0  0  0  0  0  0  0  0  0  0  0  0
    0.4115   -1.6466   -1.6156 H   0  0  0  0  0  0  0  0  0  0  0  0
    2.2367    1.5706   -0.1710 H   0  0  0  0  0  0  0  0  0  0  0  0
    2.8538   -0.1289   -0.5290 H   0  0  0  0  0  0  0  0  0  0  0  0
    1.1514    0.7262    1.9005 H   0  0  0  0  0  0  0  0  0  0  0  0
    1.6636   -1.0476    1.4563 H   0  0  0  0  0  0  0  0  0  0  0  0
  1  2  2  0
  2  3  1  0
  3  4  1  0
  4  5  1  0
  5  6  1  0
  6  7  1  0
  7  8  1  0
  8  9  1  0
  7  3  1  0
  6  4  1  0
  9  7  1  0
  2 10  1  0
  3 11  1  0
  4 12  1  0
  5 13  1  0
  5 14  1  0
  6 15  1  0
  8 16  1  0
  8 17  1  0
  9 18  1  0
  9 19  1  0
M  END
