
     RDKit          3D

 13 13  0  0  0  0  0  0  0  0999 V2000
    2.7907   -1.1527   -0.1877 O   0  0  0  0  0  0  0  0  0  0  0  0
    2.2207   -0.0415   -0.1764 C   0  0  0  0  0  0  0  0  0  0  0  0
    0.7743    0.0564    0.0018 C   0  0  0  0  0  0  0  0  0  0  0  0
    0.0609    1.1677    0.0313 C   0  0  0  0  0  0  0  0  0  0  0  0
   -1.3562    0.8726    0.2274 C   0  0  0  0  0  0  0  0  0  0  0  0
   -2.2707    1.6683    0.6120 O   0  0  0  0  0  0  0  0  0  0  0  0
   -1.4878   -0.5679   -0.1243 C   0  0  0  0  0  0  0  0  0  0  0  0
   -0.1299   -1.0720    0.1784 C   0  0  0  0  0  0  0  0  0  0  0  0
    0.1284   -2.2499    0.5155 O   0  0  0  0  0  0  0  0  0  0  0  0
    2.8043    0.8676   -0.3003 H   0  0  0  0  0  0  0  0  0  0  0  0
    0.4657    2.1779   -0.0755 H   0  0  0  0  0  0  0  0  0  0  0  0
   -2.2752   -1.0420    0.4958 H   0  0  0  0  0  0  0  0  0  0  0  0
   -1.7252   -0.6845   -1.1981 H   0  0  0  0  0  0  0  0  0  0  0  0
  1  2  2  0
  2  3  1  0
  3  4  2  0
  4  5  1  0
  5  6  2  0
  5  7  1  0
  7  8  1  0
  8  9  2  0
  8  3  1  0
  2 10  1  0
  4 11  1  0
  7 12  1  0
  7 13  1  0
M  END
