
     RDKit          3D

 17 17  0  0  0  0  0  0  0  0999 V2000
    3.2037    0.9722   -0.2627 O   0  0  0  0  0  0  0  0  0  0  0  0
    2.4412    0.1115    0.1227 C   0  0  0  0  0  0  0  0  0  0  0  0
    1.0365    0.1494   -0.2421 C   0  0  0  0  0  0  0  0  0  0  0  0
    0.2632    1.2207    0.4939 C   0  0  0  0  0  0  0  0  0  0  0  0
   -1.0524    1.1914    0.3474 C   0  0  0  0  0  0  0  0  0  0  0  0
   -1.7018    0.1549   -0.4970 C   0  0  0  0  0  0  0  0  0  0  0  0
   -1.1643   -1.1864    0.0086 C   0  0  0  0  0  0  0  0  0  0  0  0
    0.3189   -1.1199    0.0440 C   0  0  0  0  0  0  0  0  0  0  0  0
    0.9447   -2.1275    0.3128 O   0  0  0  0  0  0  0  0  0  0  0  0
    2.8427   -0.6751    0.7406 H   0  0  0  0  0  0  0  0  0  0  0  0
    0.8901    0.3439   -1.3406 H   0  0  0  0  0  0  0  0  0  0  0  0
    0.7841    1.9603    1.1020 H   0  0  0  0  0  0  0  0  0  0  0  0
   -1.6624    1.9288    0.8467 H   0  0  0  0  0  0  0  0  0  0  0  0
   -2.7847    0.2069   -0.4488 H   0  0  0  0  0  0  0  0  0  0  0  0
   -1.3206    0.2100   -1.5597 H   0  0  0  0  0  0  0  0  0  0  0  0
   -1.4312   -2.0099   -0.6830 H   0  0  0  0  0  0  0  0  0  0  0  0
   -1.6075   -1.3313    1.0151 H   0  0  0  0  0  0  0  0  0  0  0  0
  1  2  2  0
  2  3  1  0
  3  4  1  0
  4  5  2  0
  5  6  1  0
  6  7  1  0
  7  8  1  0
  8  9  2  0
  8  3  1  0
  2 10  1  0
  3 11  1  0
  4 12  1  0
  5 13  1  0
  6 14  1  0
  6 15  1  0
  7 16  1  0
  7 17  1  0
M  END
