
     RDKit          3D

 13 13  0  0  0  0  0  0  0  0999 V2000
    2.3973    1.3153    1.1361 O   0  0  0  0  0  0  0  0  0  0  0  0
    2.4814    0.2474    0.4863 C   0  0  0  0  0  0  0  0  0  0  0  0
    1.3170   -0.5264    0.0720 C   0  0  0  0  0  0  0  0  0  0  0  0
    1.3811   -1.5841   -0.5708 O   0  0  0  0  0  0  0  0  0  0  0  0
   -0.0545   -0.0355    0.4324 C   0  0  0  0  0  0  0  0  0  0  0  0
   -0.9875   -0.9785    0.8583 O   0  0  0  0  0  0  0  0  0  0  0  0
   -1.1355   -0.3733   -0.4594 C   0  0  0  0  0  0  0  0  0  0  0  0
   -2.2757    0.5540   -0.5824 C   0  0  0  0  0  0  0  0  0  0  0  0
   -3.0423    0.4047   -1.5126 O   0  0  0  0  0  0  0  0  0  0  0  0
    3.4702   -0.0998    0.2306 H   0  0  0  0  0  0  0  0  0  0  0  0
   -0.0992    0.9058    1.0039 H   0  0  0  0  0  0  0  0  0  0  0  0
   -1.0215   -1.1704   -1.2198 H   0  0  0  0  0  0  0  0  0  0  0  0
   -2.4309    1.3408    0.1254 H   0  0  0  0  0  0  0  0  0  0  0  0
  1  2  2  0
  2  3  1  0
  3  4  2  0
  3  5  1  0
  5  6  1  0
  6  7  1  0
  7  8  1  0
  8  9  2  0
  7  5  1  0
  2 10  1  0
  5 11  1  0
  7 12  1  0
  8 13  1  0
M  END
