
     RDKit          3D

 17 17  0  0  0  0  0  0  0  0999 V2000
    2.7821   -1.4377    0.1242 O   0  0  0  0  0  0  0  0  0  0  0  0
    2.2678   -0.3738   -0.1081 C   0  0  0  0  0  0  0  0  0  0  0  0
    0.8137   -0.2503   -0.2194 C   0  0  0  0  0  0  0  0  0  0  0  0
    0.1975   -1.4595   -0.0279 O   0  0  0  0  0  0  0  0  0  0  0  0
   -1.1513   -1.4788   -0.2555 C   0  0  0  0  0  0  0  0  0  0  0  0
   -1.8065   -0.1699   -0.0707 C   0  0  0  0  0  0  0  0  0  0  0  0
   -1.1999    0.9299    0.3589 C   0  0  0  0  0  0  0  0  0  0  0  0
    0.2415    0.8410    0.6773 C   0  0  0  0  0  0  0  0  0  0  0  0
    0.9386    2.0076    0.4031 O   0  0  0  0  0  0  0  0  0  0  0  0
    2.8886    0.4959   -0.2350 H   0  0  0  0  0  0  0  0  0  0  0  0
    0.5753    0.0837   -1.2706 H   0  0  0  0  0  0  0  0  0  0  0  0
   -1.6053   -2.2441    0.4402 H   0  0  0  0  0  0  0  0  0  0  0  0
   -1.3212   -1.7816   -1.3302 H   0  0  0  0  0  0  0  0  0  0  0  0
   -2.8809   -0.0874   -0.3039 H   0  0  0  0  0  0  0  0  0  0  0  0
   -1.7587    1.8395    0.4628 H   0  0  0  0  0  0  0  0  0  0  0  0
    0.3942    0.6055    1.7540 H   0  0  0  0  0  0  0  0  0  0  0  0
    0.6246    2.4799   -0.3992 H   0  0  0  0  0  0  0  0  0  0  0  0
  1  2  2  0
  2  3  1  0
  3  4  1  0
  4  5  1  0
  5  6  1  0
  6  7  2  0
  7  8  1  0
  8  9  1  0
  8  3  1  0
  2 10  1  0
  3 11  1  0
  5 12  1  0
  5 13  1  0
  6 14  1  0
  7 15  1  0
  8 16  1  0
  9 17  1  0
M  END
