
     RDKit          3D

 19 20  0  0  0  0  0  0  0  0999 V2000
    3.7139   -0.6041   -0.4752 O   0  0  0  0  0  0  0  0  0  0  0  0
    2.7308    0.0222   -0.1266 C   0  0  0  0  0  0  0  0  0  0  0  0
    1.4421   -0.2025   -0.8454 C   0  0  0  0  0  0  0  0  0  0  0  0
    0.3556    0.6847   -0.2399 C   0  0  0  0  0  0  0  0  0  0  0  0
    0.0950    0.4158    1.2594 C   0  0  0  0  0  0  0  0  0  0  0  0
   -0.8627    0.0929    0.2428 C   0  0  0  0  0  0  0  0  0  0  0  0
   -2.2278    0.6439    0.0887 C   0  0  0  0  0  0  0  0  0  0  0  0
   -2.5612   -0.5443   -0.6075 O   0  0  0  0  0  0  0  0  0  0  0  0
   -1.4255   -1.2169   -0.0949 C   0  0  0  0  0  0  0  0  0  0  0  0
    2.7641    0.7368    0.6890 H   0  0  0  0  0  0  0  0  0  0  0  0
    1.5292   -0.0652   -1.9224 H   0  0  0  0  0  0  0  0  0  0  0  0
    1.1399   -1.2484   -0.6323 H   0  0  0  0  0  0  0  0  0  0  0  0
    0.3692    1.7583   -0.5458 H   0  0  0  0  0  0  0  0  0  0  0  0
   -0.0962    1.3185    1.8936 H   0  0  0  0  0  0  0  0  0  0  0  0
    0.7520   -0.3218    1.7509 H   0  0  0  0  0  0  0  0  0  0  0  0
   -2.2455    1.5486   -0.5293 H   0  0  0  0  0  0  0  0  0  0  0  0
   -2.8160    0.6722    1.0123 H   0  0  0  0  0  0  0  0  0  0  0  0
   -1.7243   -1.8899    0.7389 H   0  0  0  0  0  0  0  0  0  0  0  0
   -0.9324   -1.8008   -0.8956 H   0  0  0  0  0  0  0  0  0  0  0  0
  1  2  2  0
  2  3  1  0
  3  4  1  0
  4  5  1  0
  5  6  1  0
  6  7  1  0
  7  8  1  0
  8  9  1  0
  6  4  1  0
  9  6  1  0
  2 10  1  0
  3 11  1  0
  3 12  1  0
  4 13  1  0
  5 14  1  0
  5 15  1  0
  7 16  1  0
  7 17  1  0
  9 18  1  0
  9 19  1  0
M  END
