
     RDKit          3D

 19 19  0  0  0  0  0  0  0  0999 V2000
    2.9371   -0.2138    1.0381 O   0  0  0  0  0  0  0  0  0  0  0  0
    2.6694   -0.0482   -0.1343 C   0  0  0  0  0  0  0  0  0  0  0  0
    1.2583    0.1554   -0.5364 C   0  0  0  0  0  0  0  0  0  0  0  0
    0.4151    0.1061    0.6989 C   0  0  0  0  0  0  0  0  0  0  0  0
    0.6104   -1.1695    1.2743 O   0  0  0  0  0  0  0  0  0  0  0  0
   -1.0406    0.3129    0.4785 C   0  0  0  0  0  0  0  0  0  0  0  0
   -1.7907    0.2513    1.6747 O   0  0  0  0  0  0  0  0  0  0  0  0
   -1.5993    1.0394   -0.6582 C   0  0  0  0  0  0  0  0  0  0  0  0
   -1.6714   -0.4525   -0.6776 C   0  0  0  0  0  0  0  0  0  0  0  0
    3.4864   -0.0577   -0.8377 H   0  0  0  0  0  0  0  0  0  0  0  0
    0.9803   -0.6548   -1.2699 H   0  0  0  0  0  0  0  0  0  0  0  0
    1.2157    1.1462   -1.0467 H   0  0  0  0  0  0  0  0  0  0  0  0
    0.8230    0.8689    1.3980 H   0  0  0  0  0  0  0  0  0  0  0  0
    1.0152   -1.7960    0.6248 H   0  0  0  0  0  0  0  0  0  0  0  0
   -2.0338   -0.6820    1.7895 H   0  0  0  0  0  0  0  0  0  0  0  0
   -1.0027    1.5608   -1.4141 H   0  0  0  0  0  0  0  0  0  0  0  0
   -2.5973    1.5320   -0.4924 H   0  0  0  0  0  0  0  0  0  0  0  0
   -2.6471   -0.9611   -0.4838 H   0  0  0  0  0  0  0  0  0  0  0  0
   -1.0279   -0.9372   -1.4257 H   0  0  0  0  0  0  0  0  0  0  0  0
  1  2  2  0
  2  3  1  0
  3  4  1  0
  4  5  1  0
  4  6  1  0
  6  7  1  0
  6  8  1  0
  8  9  1  0
  9  6  1  0
  2 10  1  0
  3 11  1  0
  3 12  1  0
  4 13  1  0
  5 14  1  0
  7 15  1  0
  8 16  1  0
  8 17  1  0
  9 18  1  0
  9 19  1  0
M  END
