
     RDKit          3D

 16 17  0  0  0  0  0  0  0  0999 V2000
    2.5995   -0.6964    1.2681 O   0  0  0  0  0  0  0  0  0  0  0  0
    2.6257   -0.2488    0.1546 C   0  0  0  0  0  0  0  0  0  0  0  0
    1.4676    0.3236   -0.5682 C   0  0  0  0  0  0  0  0  0  0  0  0
    0.2015    0.2716    0.3042 C   0  0  0  0  0  0  0  0  0  0  0  0
   -1.0783    0.7600   -0.1410 C   0  0  0  0  0  0  0  0  0  0  0  0
   -2.3882   -0.0484   -0.1171 C   0  0  0  0  0  0  0  0  0  0  0  0
   -1.6460   -0.8706   -1.0102 O   0  0  0  0  0  0  0  0  0  0  0  0
   -0.7132   -0.7706    0.0197 C   0  0  0  0  0  0  0  0  0  0  0  0
    3.5718   -0.2606   -0.3730 H   0  0  0  0  0  0  0  0  0  0  0  0
    1.3110   -0.2338   -1.5105 H   0  0  0  0  0  0  0  0  0  0  0  0
    1.6199    1.3815   -0.8085 H   0  0  0  0  0  0  0  0  0  0  0  0
    0.4755    0.5238    1.3680 H   0  0  0  0  0  0  0  0  0  0  0  0
   -0.9985    1.1489   -1.2055 H   0  0  0  0  0  0  0  0  0  0  0  0
   -3.2189    0.4686   -0.6070 H   0  0  0  0  0  0  0  0  0  0  0  0
   -2.6522   -0.4928    0.8336 H   0  0  0  0  0  0  0  0  0  0  0  0
   -1.1774   -1.2560    0.9349 H   0  0  0  0  0  0  0  0  0  0  0  0
  1  2  2  0
  2  3  1  0
  3  4  1  0
  4  5  1  0
  5  6  1  0
  6  7  1  0
  7  8  1  0
  8  4  1  0
  8  5  1  0
  2  9  1  0
  3 10  1  0
  3 11  1  0
  4 12  1  0
  5 13  1  0
  6 14  1  0
  6 15  1  0
  8 16  1  0
M  END
