
     RDKit          3D

 17 17  0  0  0  0  0  0  0  0999 V2000
    2.9830    1.5163   -0.2700 O   0  0  0  0  0  0  0  0  0  0  0  0
    2.5114    0.3714   -0.2171 C   0  0  0  0  0  0  0  0  0  0  0  0
    1.0886    0.1876   -0.0124 C   0  0  0  0  0  0  0  0  0  0  0  0
    0.3740    1.2951    0.1068 C   0  0  0  0  0  0  0  0  0  0  0  0
   -1.0692    1.3352    0.3175 C   0  0  0  0  0  0  0  0  0  0  0  0
   -1.9916    0.3739    0.2361 C   0  0  0  0  0  0  0  0  0  0  0  0
   -1.6641   -1.0453   -0.1204 C   0  0  0  0  0  0  0  0  0  0  0  0
   -0.5698   -1.4017    0.6518 O   0  0  0  0  0  0  0  0  0  0  0  0
    0.6373   -1.2148    0.0340 C   0  0  0  0  0  0  0  0  0  0  0  0
    3.1443   -0.4907   -0.3210 H   0  0  0  0  0  0  0  0  0  0  0  0
    0.9022    2.2497    0.0430 H   0  0  0  0  0  0  0  0  0  0  0  0
   -1.4544    2.3309    0.5893 H   0  0  0  0  0  0  0  0  0  0  0  0
   -3.0113    0.6302    0.4348 H   0  0  0  0  0  0  0  0  0  0  0  0
   -2.5624   -1.6426    0.0762 H   0  0  0  0  0  0  0  0  0  0  0  0
   -1.4055   -1.0165   -1.2179 H   0  0  0  0  0  0  0  0  0  0  0  0
    1.4054   -1.7774    0.6434 H   0  0  0  0  0  0  0  0  0  0  0  0
    0.6822   -1.7013   -0.9741 H   0  0  0  0  0  0  0  0  0  0  0  0
  1  2  2  0
  2  3  1  0
  3  4  2  0
  4  5  1  0
  5  6  2  0
  6  7  1  0
  7  8  1  0
  8  9  1  0
  9  3  1  0
  2 10  1  0
  4 11  1  0
  5 12  1  0
  6 13  1  0
  7 14  1  0
  7 15  1  0
  9 16  1  0
  9 17  1  0
M  END
