
     RDKit          3D

 17 18  0  0  0  0  0  0  0  0999 V2000
    3.0642    0.4736    0.5783 O   0  0  0  0  0  0  0  0  0  0  0  0
    2.3192    0.1687   -0.3349 C   0  0  0  0  0  0  0  0  0  0  0  0
    0.8689    0.0761   -0.2078 C   0  0  0  0  0  0  0  0  0  0  0  0
    0.1793    1.3141    0.3034 C   0  0  0  0  0  0  0  0  0  0  0  0
   -1.1430    1.2405    0.3225 C   0  0  0  0  0  0  0  0  0  0  0  0
   -1.8107   -0.0057   -0.1363 C   0  0  0  0  0  0  0  0  0  0  0  0
   -0.7183   -0.9794   -0.5582 C   0  0  0  0  0  0  0  0  0  0  0  0
    0.2974   -1.0919    0.5177 C   0  0  0  0  0  0  0  0  0  0  0  0
    0.2108   -0.2862   -1.3682 O   0  0  0  0  0  0  0  0  0  0  0  0
    2.7688   -0.0493   -1.3123 H   0  0  0  0  0  0  0  0  0  0  0  0
    0.7743    2.1497    0.6101 H   0  0  0  0  0  0  0  0  0  0  0  0
   -1.7392    2.0708    0.6655 H   0  0  0  0  0  0  0  0  0  0  0  0
   -2.4918    0.1658   -0.9887 H   0  0  0  0  0  0  0  0  0  0  0  0
   -2.4099   -0.4783    0.6793 H   0  0  0  0  0  0  0  0  0  0  0  0
   -1.0505   -1.8769   -1.0715 H   0  0  0  0  0  0  0  0  0  0  0  0
    0.0176   -0.8500    1.5395 H   0  0  0  0  0  0  0  0  0  0  0  0
    0.8630   -2.0415    0.4564 H   0  0  0  0  0  0  0  0  0  0  0  0
  1  2  2  0
  2  3  1  0
  3  4  1  0
  4  5  2  0
  5  6  1  0
  6  7  1  0
  7  8  1  0
  7  9  1  0
  8  3  1  0
  9  3  1  0
  2 10  1  0
  4 11  1  0
  5 12  1  0
  6 13  1  0
  6 14  1  0
  7 15  1  0
  8 16  1  0
  8 17  1  0
M  END
