
     RDKit          3D

 19 20  0  0  0  0  0  0  0  0999 V2000
    2.9610   -1.3268    0.2475 O   0  0  0  0  0  0  0  0  0  0  0  0
    2.6989   -0.1618    0.0039 C   0  0  0  0  0  0  0  0  0  0  0  0
    1.4962    0.5472    0.4940 C   0  0  0  0  0  0  0  0  0  0  0  0
    0.2702    0.2450   -0.3628 C   0  0  0  0  0  0  0  0  0  0  0  0
   -0.9520    0.9868    0.1545 C   0  0  0  0  0  0  0  0  0  0  0  0
   -2.0703   -0.0805    0.2110 C   0  0  0  0  0  0  0  0  0  0  0  0
   -1.5289   -0.9934   -0.8187 C   0  0  0  0  0  0  0  0  0  0  0  0
   -0.7866   -2.0651   -0.7874 O   0  0  0  0  0  0  0  0  0  0  0  0
   -0.1557   -1.1583   -0.0909 C   0  0  0  0  0  0  0  0  0  0  0  0
    3.4385    0.3603   -0.6318 H   0  0  0  0  0  0  0  0  0  0  0  0
    1.6876    1.6486    0.4555 H   0  0  0  0  0  0  0  0  0  0  0  0
    1.3197    0.3113    1.5506 H   0  0  0  0  0  0  0  0  0  0  0  0
    0.4823    0.4227   -1.4131 H   0  0  0  0  0  0  0  0  0  0  0  0
   -0.7898    1.4034    1.1641 H   0  0  0  0  0  0  0  0  0  0  0  0
   -1.2600    1.7663   -0.5892 H   0  0  0  0  0  0  0  0  0  0  0  0
   -2.0602   -0.4591    1.2487 H   0  0  0  0  0  0  0  0  0  0  0  0
   -3.0503    0.3598   -0.0389 H   0  0  0  0  0  0  0  0  0  0  0  0
   -1.4866   -0.4698   -1.8229 H   0  0  0  0  0  0  0  0  0  0  0  0
   -0.2140   -1.3364    1.0259 H   0  0  0  0  0  0  0  0  0  0  0  0
  1  2  2  0
  2  3  1  0
  3  4  1  0
  4  5  1  0
  5  6  1  0
  6  7  1  0
  7  8  1  0
  8  9  1  0
  9  4  1  0
  9  7  1  0
  2 10  1  0
  3 11  1  0
  3 12  1  0
  4 13  1  0
  5 14  1  0
  5 15  1  0
  6 16  1  0
  6 17  1  0
  7 18  1  0
  9 19  1  0
M  END
