
     RDKit          3D

 17 18  0  0  0  0  0  0  0  0999 V2000
   -1.9312   -1.4806   -1.0650 O   0  0  0  0  0  0  0  0  0  0  0  0
   -1.0975   -1.6208   -0.1811 C   0  0  0  0  0  0  0  0  0  0  0  0
   -0.3206   -0.4854    0.3602 C   0  0  0  0  0  0  0  0  0  0  0  0
    1.0930   -0.6766    0.8110 C   0  0  0  0  0  0  0  0  0  0  0  0
    1.8864    0.1959   -0.0661 C   0  0  0  0  0  0  0  0  0  0  0  0
    1.0767    0.9567   -0.7700 C   0  0  0  0  0  0  0  0  0  0  0  0
   -0.3419    0.7503   -0.5133 C   0  0  0  0  0  0  0  0  0  0  0  0
   -1.1945    0.7724   -1.6171 O   0  0  0  0  0  0  0  0  0  0  0  0
   -0.9801    0.7655    0.8010 C   0  0  0  0  0  0  0  0  0  0  0  0
   -0.9014   -2.6026    0.2382 H   0  0  0  0  0  0  0  0  0  0  0  0
    1.2667   -0.3261    1.8514 H   0  0  0  0  0  0  0  0  0  0  0  0
    1.3847   -1.7426    0.6936 H   0  0  0  0  0  0  0  0  0  0  0  0
    3.0023    0.1893   -0.1050 H   0  0  0  0  0  0  0  0  0  0  0  0
    1.4604    1.6924   -1.4973 H   0  0  0  0  0  0  0  0  0  0  0  0
   -1.8309    1.5357   -1.4487 H   0  0  0  0  0  0  0  0  0  0  0  0
   -0.5050    1.3142    1.6555 H   0  0  0  0  0  0  0  0  0  0  0  0
   -2.0671    0.7625    0.8528 H   0  0  0  0  0  0  0  0  0  0  0  0
  1  2  2  0
  2  3  1  0
  3  4  1  0
  4  5  1  0
  5  6  2  0
  6  7  1  0
  7  8  1  0
  7  9  1  0
  7  3  1  0
  9  3  1  0
  2 10  1  0
  4 11  1  0
  4 12  1  0
  5 13  1  0
  6 14  1  0
  8 15  1  0
  9 16  1  0
  9 17  1  0
M  END
