
     RDKit          3D

 19 20  0  0  0  0  0  0  0  0999 V2000
    3.0971   -0.0803    1.5726 O   0  0  0  0  0  0  0  0  0  0  0  0
    2.2970   -0.1995    0.6677 C   0  0  0  0  0  0  0  0  0  0  0  0
    1.1629    0.7704    0.4581 C   0  0  0  0  0  0  0  0  0  0  0  0
    0.8320    1.1147   -1.0065 C   0  0  0  0  0  0  0  0  0  0  0  0
    0.0074    0.2172   -0.2308 C   0  0  0  0  0  0  0  0  0  0  0  0
   -0.1166   -1.2470   -0.4372 C   0  0  0  0  0  0  0  0  0  0  0  0
   -1.5973   -1.1182   -0.1534 C   0  0  0  0  0  0  0  0  0  0  0  0
   -1.4023    0.3783    0.1191 C   0  0  0  0  0  0  0  0  0  0  0  0
   -1.7340    0.7709    1.3985 O   0  0  0  0  0  0  0  0  0  0  0  0
    2.4415   -1.0552    0.0047 H   0  0  0  0  0  0  0  0  0  0  0  0
    1.1442    1.5721    1.1948 H   0  0  0  0  0  0  0  0  0  0  0  0
    1.5228    0.7098   -1.7817 H   0  0  0  0  0  0  0  0  0  0  0  0
    0.4121    2.1424   -1.1895 H   0  0  0  0  0  0  0  0  0  0  0  0
    0.3951   -1.8014    0.3943 H   0  0  0  0  0  0  0  0  0  0  0  0
    0.1574   -1.5690   -1.4478 H   0  0  0  0  0  0  0  0  0  0  0  0
   -1.9451   -1.6058    0.7743 H   0  0  0  0  0  0  0  0  0  0  0  0
   -2.1912   -1.3556   -1.0340 H   0  0  0  0  0  0  0  0  0  0  0  0
   -1.9686    0.9494   -0.6642 H   0  0  0  0  0  0  0  0  0  0  0  0
   -2.5144    1.4067    1.3609 H   0  0  0  0  0  0  0  0  0  0  0  0
  1  2  2  0
  2  3  1  0
  3  4  1  0
  4  5  1  0
  5  6  1  0
  6  7  1  0
  7  8  1  0
  8  9  1  0
  5  3  1  0
  8  5  1  0
  2 10  1  0
  3 11  1  0
  4 12  1  0
  4 13  1  0
  6 14  1  0
  6 15  1  0
  7 16  1  0
  7 17  1  0
  8 18  1  0
  9 19  1  0
M  END
