
     RDKit          3D

 15 16  0  0  0  0  0  0  0  0999 V2000
    2.4422   -0.0921    0.9679 O   0  0  0  0  0  0  0  0  0  0  0  0
    1.6517   -0.4096    0.1052 C   0  0  0  0  0  0  0  0  0  0  0  0
    0.7705    0.5924   -0.4638 C   0  0  0  0  0  0  0  0  0  0  0  0
   -0.3085    1.0257    0.4737 C   0  0  0  0  0  0  0  0  0  0  0  0
   -0.8703   -0.3127    0.9938 C   0  0  0  0  0  0  0  0  0  0  0  0
   -1.0358   -0.9316   -0.3453 C   0  0  0  0  0  0  0  0  0  0  0  0
   -1.5031   -1.9708   -0.6523 O   0  0  0  0  0  0  0  0  0  0  0  0
   -0.4508    0.1163   -1.2015 C   0  0  0  0  0  0  0  0  0  0  0  0
   -1.0919    1.2581   -0.6568 O   0  0  0  0  0  0  0  0  0  0  0  0
    1.6243   -1.4354   -0.2186 H   0  0  0  0  0  0  0  0  0  0  0  0
    1.2972    1.3531   -1.0253 H   0  0  0  0  0  0  0  0  0  0  0  0
   -0.1518    1.8009    1.1799 H   0  0  0  0  0  0  0  0  0  0  0  0
   -1.8228   -0.1538    1.5152 H   0  0  0  0  0  0  0  0  0  0  0  0
   -0.1153   -0.8552    1.5815 H   0  0  0  0  0  0  0  0  0  0  0  0
   -0.4355    0.0149   -2.2537 H   0  0  0  0  0  0  0  0  0  0  0  0
  1  2  2  0
  2  3  1  0
  3  4  1  0
  4  5  1  0
  5  6  1  0
  6  7  2  0
  6  8  1  0
  8  9  1  0
  8  3  1  0
  9  4  1  0
  2 10  1  0
  3 11  1  0
  4 12  1  0
  5 13  1  0
  5 14  1  0
  8 15  1  0
M  END
