
     RDKit          3D

 19 20  0  0  0  0  0  0  0  0999 V2000
   -1.8366    2.4217    0.2435 O   0  0  0  0  0  0  0  0  0  0  0  0
   -1.5387    1.3354   -0.2625 C   0  0  0  0  0  0  0  0  0  0  0  0
   -1.4100    0.1410    0.5943 C   0  0  0  0  0  0  0  0  0  0  0  0
   -2.0088   -1.0984    0.0051 C   0  0  0  0  0  0  0  0  0  0  0  0
   -0.7404   -1.6891   -0.0684 O   0  0  0  0  0  0  0  0  0  0  0  0
   -0.1068   -0.5935    0.5303 C   0  0  0  0  0  0  0  0  0  0  0  0
    0.8973    0.1099   -0.3174 C   0  0  0  0  0  0  0  0  0  0  0  0
    2.2762   -0.4810   -0.5022 C   0  0  0  0  0  0  0  0  0  0  0  0
    2.1053    0.6555    0.4253 C   0  0  0  0  0  0  0  0  0  0  0  0
   -1.3893    1.3311   -1.3182 H   0  0  0  0  0  0  0  0  0  0  0  0
   -1.7424    0.3304    1.6369 H   0  0  0  0  0  0  0  0  0  0  0  0
   -2.3856   -0.9269   -1.0262 H   0  0  0  0  0  0  0  0  0  0  0  0
   -2.7207   -1.6440    0.6239 H   0  0  0  0  0  0  0  0  0  0  0  0
    0.2776   -0.8595    1.5443 H   0  0  0  0  0  0  0  0  0  0  0  0
    0.5313    0.6517   -1.2083 H   0  0  0  0  0  0  0  0  0  0  0  0
    2.3708   -1.5143   -0.1648 H   0  0  0  0  0  0  0  0  0  0  0  0
    2.8359   -0.2610   -1.4344 H   0  0  0  0  0  0  0  0  0  0  0  0
    2.4021    1.6573    0.0888 H   0  0  0  0  0  0  0  0  0  0  0  0
    2.1828    0.4337    1.5092 H   0  0  0  0  0  0  0  0  0  0  0  0
  1  2  2  0
  2  3  1  0
  3  4  1  0
  4  5  1  0
  5  6  1  0
  6  7  1  0
  7  8  1  0
  8  9  1  0
  6  3  1  0
  9  7  1  0
  2 10  1  0
  3 11  1  0
  4 12  1  0
  4 13  1  0
  6 14  1  0
  7 15  1  0
  8 16  1  0
  8 17  1  0
  9 18  1  0
  9 19  1  0
M  END
