
     RDKit          3D

 13 13  0  0  0  0  0  0  0  0999 V2000
    4.1445    1.0107    0.5199 O   0  0  0  0  0  0  0  0  0  0  0  0
    3.3597    1.0717   -0.2169 C   0  0  0  0  0  0  0  0  0  0  0  0
    2.1133    0.3563   -0.0163 C   0  0  0  0  0  0  0  0  0  0  0  0
    0.8635   -0.3906    0.1859 C   0  0  0  0  0  0  0  0  0  0  0  0
   -0.3135   -1.0993    0.3814 C   0  0  0  0  0  0  0  0  0  0  0  0
   -0.2744   -2.3033    1.0870 O   0  0  0  0  0  0  0  0  0  0  0  0
   -1.6435   -0.8401   -0.0669 C   0  0  0  0  0  0  0  0  0  0  0  0
   -2.2080    0.4868   -0.2992 C   0  0  0  0  0  0  0  0  0  0  0  0
   -1.8768   -0.3706   -1.4249 O   0  0  0  0  0  0  0  0  0  0  0  0
    3.2920    1.6938   -1.2538 H   0  0  0  0  0  0  0  0  0  0  0  0
   -2.3732   -1.6353    0.1891 H   0  0  0  0  0  0  0  0  0  0  0  0
   -3.3586    0.5470   -0.1658 H   0  0  0  0  0  0  0  0  0  0  0  0
   -1.7248    1.4729   -0.5476 H   0  0  0  0  0  0  0  0  0  0  0  0
  1  2  2  0
  2  3  1  0
  3  4  3  0
  4  5  1  0
  5  6  2  0
  5  7  1  0
  7  8  1  0
  8  9  1  0
  9  7  1  0
  2 10  1  0
  7 11  1  0
  8 12  1  0
  8 13  1  0
M  END
