
     RDKit          3D

 19 20  0  0  0  0  0  0  0  0999 V2000
    3.9837    0.4685   -0.0437 O   0  0  0  0  0  0  0  0  0  0  0  0
    2.9043   -0.0769   -0.0446 C   0  0  0  0  0  0  0  0  0  0  0  0
    1.6889    0.6978   -0.2547 C   0  0  0  0  0  0  0  0  0  0  0  0
    0.4246   -0.0968   -0.2318 C   0  0  0  0  0  0  0  0  0  0  0  0
    0.2191   -0.7561    0.9814 O   0  0  0  0  0  0  0  0  0  0  0  0
   -1.1809   -0.8841    1.1611 C   0  0  0  0  0  0  0  0  0  0  0  0
   -1.6934   -0.6169   -0.1974 C   0  0  0  0  0  0  0  0  0  0  0  0
   -2.0777    0.5194   -0.9196 C   0  0  0  0  0  0  0  0  0  0  0  0
   -0.8153    0.6973   -0.3386 C   0  0  0  0  0  0  0  0  0  0  0  0
    2.8656   -1.1388    0.1123 H   0  0  0  0  0  0  0  0  0  0  0  0
    1.7858    1.2661   -1.2016 H   0  0  0  0  0  0  0  0  0  0  0  0
    1.5919    1.4857    0.5451 H   0  0  0  0  0  0  0  0  0  0  0  0
    0.5142   -0.9022   -1.0026 H   0  0  0  0  0  0  0  0  0  0  0  0
   -1.3491   -1.9330    1.4757 H   0  0  0  0  0  0  0  0  0  0  0  0
   -1.5449   -0.2163    1.9489 H   0  0  0  0  0  0  0  0  0  0  0  0
   -1.3675   -1.4861   -0.8560 H   0  0  0  0  0  0  0  0  0  0  0  0
   -2.1377    0.4976   -2.0474 H   0  0  0  0  0  0  0  0  0  0  0  0
   -2.9777    1.0941   -0.5522 H   0  0  0  0  0  0  0  0  0  0  0  0
   -0.8338    1.3805    0.5732 H   0  0  0  0  0  0  0  0  0  0  0  0
  1  2  2  0
  2  3  1  0
  3  4  1  0
  4  5  1  0
  5  6  1  0
  6  7  1  0
  7  8  1  0
  8  9  1  0
  9  4  1  0
  9  7  1  0
  2 10  1  0
  3 11  1  0
  3 12  1  0
  4 13  1  0
  6 14  1  0
  6 15  1  0
  7 16  1  0
  8 17  1  0
  8 18  1  0
  9 19  1  0
M  END
