
     RDKit          3D

 15 16  0  0  0  0  0  0  0  0999 V2000
    2.8586   -0.2744    0.8840 O   0  0  0  0  0  0  0  0  0  0  0  0
    2.5574    0.3089   -0.2040 C   0  0  0  0  0  0  0  0  0  0  0  0
    1.1682    0.5948   -0.5040 C   0  0  0  0  0  0  0  0  0  0  0  0
    0.8892    1.1703   -1.5809 O   0  0  0  0  0  0  0  0  0  0  0  0
    0.0967    0.2279    0.4174 C   0  0  0  0  0  0  0  0  0  0  0  0
   -1.2922    0.5894   -0.0307 C   0  0  0  0  0  0  0  0  0  0  0  0
   -1.7943   -0.5016    0.8648 C   0  0  0  0  0  0  0  0  0  0  0  0
   -0.6360   -1.0360    0.1103 C   0  0  0  0  0  0  0  0  0  0  0  0
   -1.1645   -0.3683   -1.0101 O   0  0  0  0  0  0  0  0  0  0  0  0
    3.3453    0.5734   -0.8711 H   0  0  0  0  0  0  0  0  0  0  0  0
    0.2949    0.3994    1.5041 H   0  0  0  0  0  0  0  0  0  0  0  0
   -1.6675    1.5214   -0.1185 H   0  0  0  0  0  0  0  0  0  0  0  0
   -1.6511   -0.2474    1.9172 H   0  0  0  0  0  0  0  0  0  0  0  0
   -2.7365   -0.9855    0.5790 H   0  0  0  0  0  0  0  0  0  0  0  0
   -0.2681   -1.9725    0.0973 H   0  0  0  0  0  0  0  0  0  0  0  0
  1  2  2  0
  2  3  1  0
  3  4  2  0
  3  5  1  0
  5  6  1  0
  6  7  1  0
  7  8  1  0
  8  9  1  0
  8  5  1  0
  9  6  1  0
  2 10  1  0
  5 11  1  0
  6 12  1  0
  7 13  1  0
  7 14  1  0
  8 15  1  0
M  END
