
     RDKit          3D

 17 18  0  0  0  0  0  0  0  0999 V2000
    1.9209    1.7128    0.2114 O   0  0  0  0  0  0  0  0  0  0  0  0
    2.5753    0.6370    0.2505 C   0  0  0  0  0  0  0  0  0  0  0  0
    1.9349   -0.6725    0.2400 C   0  0  0  0  0  0  0  0  0  0  0  0
    2.7031   -1.6826    0.2882 O   0  0  0  0  0  0  0  0  0  0  0  0
    0.4648   -0.8229    0.1768 C   0  0  0  0  0  0  0  0  0  0  0  0
   -0.2558    0.1290   -0.7006 C   0  0  0  0  0  0  0  0  0  0  0  0
   -1.7381    0.1010   -0.8642 C   0  0  0  0  0  0  0  0  0  0  0  0
   -1.9205   -0.1445    0.6328 C   0  0  0  0  0  0  0  0  0  0  0  0
   -0.4585    0.1293    0.7968 C   0  0  0  0  0  0  0  0  0  0  0  0
    3.6490    0.7555    0.2925 H   0  0  0  0  0  0  0  0  0  0  0  0
    0.1241   -1.8994    0.1945 H   0  0  0  0  0  0  0  0  0  0  0  0
    0.2699    0.9228   -1.2190 H   0  0  0  0  0  0  0  0  0  0  0  0
   -2.1463    1.1154   -1.1493 H   0  0  0  0  0  0  0  0  0  0  0  0
   -2.1678   -0.6522   -1.5206 H   0  0  0  0  0  0  0  0  0  0  0  0
   -2.6226    0.5687    1.0816 H   0  0  0  0  0  0  0  0  0  0  0  0
   -2.2163   -1.2236    0.7584 H   0  0  0  0  0  0  0  0  0  0  0  0
   -0.1163    1.0263    1.3466 H   0  0  0  0  0  0  0  0  0  0  0  0
  1  2  2  0
  2  3  1  0
  3  4  2  0
  3  5  1  0
  5  6  1  0
  6  7  1  0
  7  8  1  0
  8  9  1  0
  9  5  1  0
  9  6  1  0
  2 10  1  0
  5 11  1  0
  6 12  1  0
  7 13  1  0
  7 14  1  0
  8 15  1  0
  8 16  1  0
  9 17  1  0
M  END
