
     RDKit          3D

 17 18  0  0  0  0  0  0  0  0999 V2000
    2.1837   -1.0545   -1.1081 O   0  0  0  0  0  0  0  0  0  0  0  0
    2.0356   -0.2831   -0.1767 C   0  0  0  0  0  0  0  0  0  0  0  0
    0.7173    0.1103    0.3172 C   0  0  0  0  0  0  0  0  0  0  0  0
    0.7928    1.0084    1.3980 O   0  0  0  0  0  0  0  0  0  0  0  0
   -0.2076    0.7049   -0.7236 C   0  0  0  0  0  0  0  0  0  0  0  0
   -0.3302    2.0623   -0.7285 O   0  0  0  0  0  0  0  0  0  0  0  0
   -1.3025   -0.0733   -0.0247 C   0  0  0  0  0  0  0  0  0  0  0  0
   -1.2403   -1.5219   -0.2858 C   0  0  0  0  0  0  0  0  0  0  0  0
   -0.2473   -0.9832    0.6436 C   0  0  0  0  0  0  0  0  0  0  0  0
    2.9240    0.1101    0.2835 H   0  0  0  0  0  0  0  0  0  0  0  0
    1.0620    1.9143    1.1108 H   0  0  0  0  0  0  0  0  0  0  0  0
   -0.0240    0.3283   -1.7659 H   0  0  0  0  0  0  0  0  0  0  0  0
   -0.9936    2.4333   -0.1228 H   0  0  0  0  0  0  0  0  0  0  0  0
   -1.9528    0.3985    0.6996 H   0  0  0  0  0  0  0  0  0  0  0  0
   -0.9903   -1.8070   -1.3422 H   0  0  0  0  0  0  0  0  0  0  0  0
   -2.0667   -2.1167    0.1289 H   0  0  0  0  0  0  0  0  0  0  0  0
   -0.3600   -1.2306    1.6967 H   0  0  0  0  0  0  0  0  0  0  0  0
  1  2  2  0
  2  3  1  0
  3  4  1  0
  3  5  1  0
  5  6  1  0
  5  7  1  0
  7  8  1  0
  8  9  1  0
  9  3  1  0
  9  7  1  0
  2 10  1  0
  4 11  1  0
  5 12  1  0
  6 13  1  0
  7 14  1  0
  8 15  1  0
  8 16  1  0
  9 17  1  0
M  END
