
     RDKit          3D

 17 18  0  0  0  0  0  0  0  0999 V2000
    2.7173   -1.2845   -0.9821 O   0  0  0  0  0  0  0  0  0  0  0  0
    2.5672   -0.2577   -0.3430 C   0  0  0  0  0  0  0  0  0  0  0  0
    1.3128    0.0028    0.4386 C   0  0  0  0  0  0  0  0  0  0  0  0
    0.4204    0.9532   -0.3189 C   0  0  0  0  0  0  0  0  0  0  0  0
   -0.5180   -0.1729   -0.1550 C   0  0  0  0  0  0  0  0  0  0  0  0
   -1.8005    0.0306    0.5328 C   0  0  0  0  0  0  0  0  0  0  0  0
   -2.3913    0.2993   -0.7252 O   0  0  0  0  0  0  0  0  0  0  0  0
   -1.4014   -0.5564   -1.2633 C   0  0  0  0  0  0  0  0  0  0  0  0
    0.3967   -1.0404    0.3338 O   0  0  0  0  0  0  0  0  0  0  0  0
    3.3190    0.5281   -0.2956 H   0  0  0  0  0  0  0  0  0  0  0  0
    1.5110    0.3802    1.4440 H   0  0  0  0  0  0  0  0  0  0  0  0
    0.0850    1.8450    0.2593 H   0  0  0  0  0  0  0  0  0  0  0  0
    0.7449    1.2272   -1.3232 H   0  0  0  0  0  0  0  0  0  0  0  0
   -2.2444   -0.9296    0.8988 H   0  0  0  0  0  0  0  0  0  0  0  0
   -1.8231    0.8576    1.2404 H   0  0  0  0  0  0  0  0  0  0  0  0
   -1.7824   -1.6080   -1.1493 H   0  0  0  0  0  0  0  0  0  0  0  0
   -1.1134   -0.2745   -2.2900 H   0  0  0  0  0  0  0  0  0  0  0  0
  1  2  2  0
  2  3  1  0
  3  4  1  0
  4  5  1  0
  5  6  1  0
  6  7  1  0
  7  8  1  0
  5  9  1  0
  9  3  1  0
  8  5  1  0
  2 10  1  0
  3 11  1  0
  4 12  1  0
  4 13  1  0
  6 14  1  0
  6 15  1  0
  8 16  1  0
  8 17  1  0
M  END
