
     RDKit          3D

 18 18  0  0  0  0  0  0  0  0999 V2000
    2.3380   -0.8910    1.5304 O   0  0  0  0  0  0  0  0  0  0  0  0
    2.2625    0.1334    0.8684 C   0  0  0  0  0  0  0  0  0  0  0  0
    1.2010    0.2831   -0.1628 C   0  0  0  0  0  0  0  0  0  0  0  0
    1.3308    1.5294   -0.7710 O   0  0  0  0  0  0  0  0  0  0  0  0
   -0.1227    0.2785    0.5574 C   0  0  0  0  0  0  0  0  0  0  0  0
   -1.2689    0.4279   -0.4245 C   0  0  0  0  0  0  0  0  0  0  0  0
   -2.0484   -0.4784    0.5344 C   0  0  0  0  0  0  0  0  0  0  0  0
   -0.6817   -1.1049    0.8438 C   0  0  0  0  0  0  0  0  0  0  0  0
    2.9548    0.9362    1.0179 H   0  0  0  0  0  0  0  0  0  0  0  0
    1.2499   -0.5278   -0.9179 H   0  0  0  0  0  0  0  0  0  0  0  0
    1.9050    1.5189   -1.5616 H   0  0  0  0  0  0  0  0  0  0  0  0
   -0.1965    0.9041    1.4438 H   0  0  0  0  0  0  0  0  0  0  0  0
   -1.0427   -0.0976   -1.3792 H   0  0  0  0  0  0  0  0  0  0  0  0
   -1.6326    1.4489   -0.4923 H   0  0  0  0  0  0  0  0  0  0  0  0
   -2.4061    0.0996    1.4196 H   0  0  0  0  0  0  0  0  0  0  0  0
   -2.7617   -1.1489    0.0671 H   0  0  0  0  0  0  0  0  0  0  0  0
   -0.4454   -1.8729    0.0903 H   0  0  0  0  0  0  0  0  0  0  0  0
   -0.6352   -1.4385    1.8771 H   0  0  0  0  0  0  0  0  0  0  0  0
  1  2  2  0
  2  3  1  0
  3  4  1  0
  3  5  1  0
  5  6  1  0
  6  7  1  0
  7  8  1  0
  8  5  1  0
  2  9  1  0
  3 10  1  0
  4 11  1  0
  5 12  1  0
  6 13  1  0
  6 14  1  0
  7 15  1  0
  7 16  1  0
  8 17  1  0
  8 18  1  0
M  END
