
     RDKit          3D

 17 17  0  0  0  0  0  0  0  0999 V2000
    3.8238   -0.6941    0.4596 O   0  0  0  0  0  0  0  0  0  0  0  0
    3.4336    0.0918   -0.4308 C   0  0  0  0  0  0  0  0  0  0  0  0
    2.0325    0.3967   -0.6585 C   0  0  0  0  0  0  0  0  0  0  0  0
    1.6683    1.1839   -1.5528 O   0  0  0  0  0  0  0  0  0  0  0  0
    1.0142   -0.1582    0.0920 O   0  0  0  0  0  0  0  0  0  0  0  0
   -0.3082    0.1274   -0.1204 C   0  0  0  0  0  0  0  0  0  0  0  0
   -1.2426   -1.0388   -0.3621 C   0  0  0  0  0  0  0  0  0  0  0  0
   -2.3289   -0.1833    0.3080 C   0  0  0  0  0  0  0  0  0  0  0  0
   -1.1751    0.5449    1.0150 C   0  0  0  0  0  0  0  0  0  0  0  0
    4.1710    0.5631   -1.0562 H   0  0  0  0  0  0  0  0  0  0  0  0
   -0.4322    0.8533   -0.9650 H   0  0  0  0  0  0  0  0  0  0  0  0
   -1.5216   -1.2075   -1.4216 H   0  0  0  0  0  0  0  0  0  0  0  0
   -1.0234   -1.9506    0.2233 H   0  0  0  0  0  0  0  0  0  0  0  0
   -2.9556   -0.7906    0.9636 H   0  0  0  0  0  0  0  0  0  0  0  0
   -2.8248    0.5165   -0.3777 H   0  0  0  0  0  0  0  0  0  0  0  0
   -1.3239    1.6420    1.0881 H   0  0  0  0  0  0  0  0  0  0  0  0
   -1.0072    0.1034    1.9922 H   0  0  0  0  0  0  0  0  0  0  0  0
  1  2  2  0
  2  3  1  0
  3  4  2  0
  3  5  1  0
  5  6  1  0
  6  7  1  0
  7  8  1  0
  8  9  1  0
  9  6  1  0
  2 10  1  0
  6 11  1  0
  7 12  1  0
  7 13  1  0
  8 14  1  0
  8 15  1  0
  9 16  1  0
  9 17  1  0
M  END
