
     RDKit          3D

 15 15  0  0  0  0  0  0  0  0999 V2000
    3.0494   -0.6414    0.4847 O   0  0  0  0  0  0  0  0  0  0  0  0
    1.9649   -0.3374    0.0155 C   0  0  0  0  0  0  0  0  0  0  0  0
    0.8100    0.1194    0.8247 C   0  0  0  0  0  0  0  0  0  0  0  0
   -0.3309    0.3948   -0.1026 C   0  0  0  0  0  0  0  0  0  0  0  0
   -0.0675    1.3741   -1.0575 O   0  0  0  0  0  0  0  0  0  0  0  0
   -0.9901   -0.8739   -0.6509 C   0  0  0  0  0  0  0  0  0  0  0  0
   -1.7269    0.0557    0.2225 C   0  0  0  0  0  0  0  0  0  0  0  0
    1.8629   -0.4132   -1.0564 H   0  0  0  0  0  0  0  0  0  0  0  0
    1.0812    1.1000    1.3040 H   0  0  0  0  0  0  0  0  0  0  0  0
    0.5564   -0.6146    1.6201 H   0  0  0  0  0  0  0  0  0  0  0  0
    0.2038    2.2090   -0.6122 H   0  0  0  0  0  0  0  0  0  0  0  0
   -0.7097   -1.8463   -0.2028 H   0  0  0  0  0  0  0  0  0  0  0  0
   -1.1693   -0.9302   -1.7506 H   0  0  0  0  0  0  0  0  0  0  0  0
   -2.5044    0.6860   -0.2715 H   0  0  0  0  0  0  0  0  0  0  0  0
   -2.0297   -0.2819    1.2333 H   0  0  0  0  0  0  0  0  0  0  0  0
  1  2  2  0
  2  3  1  0
  3  4  1  0
  4  5  1  0
  4  6  1  0
  6  7  1  0
  7  4  1  0
  2  8  1  0
  3  9  1  0
  3 10  1  0
  5 11  1  0
  6 12  1  0
  6 13  1  0
  7 14  1  0
  7 15  1  0
M  END
