
     RDKit          3D

 15 16  0  0  0  0  0  0  0  0999 V2000
   -1.2729    1.8591    0.9800 O   0  0  0  0  0  0  0  0  0  0  0  0
   -1.1778    1.4834   -0.1924 C   0  0  0  0  0  0  0  0  0  0  0  0
   -0.1140    0.4992   -0.5843 C   0  0  0  0  0  0  0  0  0  0  0  0
   -0.5611   -0.7561   -1.1831 C   0  0  0  0  0  0  0  0  0  0  0  0
   -0.1351   -0.8480    0.2145 C   0  0  0  0  0  0  0  0  0  0  0  0
   -0.9886   -0.8695    1.2825 O   0  0  0  0  0  0  0  0  0  0  0  0
    1.3683   -0.6939    0.4495 C   0  0  0  0  0  0  0  0  0  0  0  0
    1.2217    0.7150   -0.0235 C   0  0  0  0  0  0  0  0  0  0  0  0
    1.9639    1.6699    0.0483 O   0  0  0  0  0  0  0  0  0  0  0  0
   -1.8564    1.8591   -0.9391 H   0  0  0  0  0  0  0  0  0  0  0  0
    0.0751   -1.3294   -1.9171 H   0  0  0  0  0  0  0  0  0  0  0  0
   -1.6284   -0.8668   -1.3935 H   0  0  0  0  0  0  0  0  0  0  0  0
   -0.4596   -0.5779    2.0890 H   0  0  0  0  0  0  0  0  0  0  0  0
    1.8935   -1.3139   -0.3136 H   0  0  0  0  0  0  0  0  0  0  0  0
    1.6715   -0.8301    1.4827 H   0  0  0  0  0  0  0  0  0  0  0  0
  1  2  2  0
  2  3  1  0
  3  4  1  0
  4  5  1  0
  5  6  1  0
  5  7  1  0
  7  8  1  0
  8  9  2  0
  5  3  1  0
  8  3  1  0
  2 10  1  0
  4 11  1  0
  4 12  1  0
  6 13  1  0
  7 14  1  0
  7 15  1  0
M  END
