
     RDKit          3D

 17 18  0  0  0  0  0  0  0  0999 V2000
   -1.8770    0.9672   -1.6276 O   0  0  0  0  0  0  0  0  0  0  0  0
   -1.0558    1.1402   -0.7473 C   0  0  0  0  0  0  0  0  0  0  0  0
   -1.1386    0.4014    0.5011 C   0  0  0  0  0  0  0  0  0  0  0  0
   -1.4047   -1.0907    0.2994 C   0  0  0  0  0  0  0  0  0  0  0  0
   -0.2601   -1.6210   -0.1239 C   0  0  0  0  0  0  0  0  0  0  0  0
    0.7008   -0.5562   -0.2066 C   0  0  0  0  0  0  0  0  0  0  0  0
    1.5381    0.1989    0.6147 C   0  0  0  0  0  0  0  0  0  0  0  0
    2.0525    1.4478    0.1994 O   0  0  0  0  0  0  0  0  0  0  0  0
    0.2266    0.1867    1.0834 C   0  0  0  0  0  0  0  0  0  0  0  0
   -0.2676    1.8592   -0.9274 H   0  0  0  0  0  0  0  0  0  0  0  0
   -1.8542    0.8108    1.2471 H   0  0  0  0  0  0  0  0  0  0  0  0
   -2.3597   -1.5572    0.4837 H   0  0  0  0  0  0  0  0  0  0  0  0
   -0.1656   -2.7038   -0.3466 H   0  0  0  0  0  0  0  0  0  0  0  0
    0.4962   -0.0274   -1.1998 H   0  0  0  0  0  0  0  0  0  0  0  0
    2.3572   -0.3468    1.1657 H   0  0  0  0  0  0  0  0  0  0  0  0
    2.9330    1.3503   -0.2261 H   0  0  0  0  0  0  0  0  0  0  0  0
    0.0789   -0.4593    2.0090 H   0  0  0  0  0  0  0  0  0  0  0  0
  1  2  2  0
  2  3  1  0
  3  4  1  0
  4  5  2  0
  5  6  1  0
  6  7  1  0
  7  8  1  0
  7  9  1  0
  9  3  1  0
  9  6  1  0
  2 10  1  0
  3 11  1  0
  4 12  1  0
  5 13  1  0
  6 14  1  0
  7 15  1  0
  8 16  1  0
  9 17  1  0
M  END
