
     RDKit          3D

 10  9  0  0  0  0  0  0  0  0999 V2000
    3.3586    0.6158   -0.7477 O   0  0  0  0  0  0  0  0  0  0  0  0
    2.6722    0.3881    0.2786 C   0  0  0  0  0  0  0  0  0  0  0  0
    1.2912    0.0102    0.1535 C   0  0  0  0  0  0  0  0  0  0  0  0
    0.1211   -0.3302    0.0387 C   0  0  0  0  0  0  0  0  0  0  0  0
   -1.2479   -0.7404   -0.0749 C   0  0  0  0  0  0  0  0  0  0  0  0
   -1.4941   -1.9590   -0.2394 O   0  0  0  0  0  0  0  0  0  0  0  0
   -2.3397    0.2184   -0.0038 C   0  0  0  0  0  0  0  0  0  0  0  0
   -2.0715    1.4317    0.1609 O   0  0  0  0  0  0  0  0  0  0  0  0
    3.0610    0.4587    1.2915 H   0  0  0  0  0  0  0  0  0  0  0  0
   -3.3510   -0.0933   -0.0889 H   0  0  0  0  0  0  0  0  0  0  0  0
  1  2  2  0
  2  3  1  0
  3  4  3  0
  4  5  1  0
  5  6  2  0
  5  7  1  0
  7  8  2  0
  2  9  1  0
  7 10  1  0
M  END
