
     RDKit          3D

 17 18  0  0  0  0  0  0  0  0999 V2000
    1.6202    1.4179    1.1884 O   0  0  0  0  0  0  0  0  0  0  0  0
    1.8457    0.4917    0.4535 C   0  0  0  0  0  0  0  0  0  0  0  0
    0.7580   -0.4024   -0.0857 C   0  0  0  0  0  0  0  0  0  0  0  0
    1.3318   -1.3854   -0.9091 O   0  0  0  0  0  0  0  0  0  0  0  0
    0.0562   -0.9783    1.0564 C   0  0  0  0  0  0  0  0  0  0  0  0
   -1.0895   -0.3812    1.2352 C   0  0  0  0  0  0  0  0  0  0  0  0
   -1.2908    0.6717    0.2237 C   0  0  0  0  0  0  0  0  0  0  0  0
   -1.5875    0.1653   -1.1345 C   0  0  0  0  0  0  0  0  0  0  0  0
   -0.1819    0.4692   -0.7994 C   0  0  0  0  0  0  0  0  0  0  0  0
    2.8497    0.2773    0.1595 H   0  0  0  0  0  0  0  0  0  0  0  0
    2.1858   -0.9877   -1.2376 H   0  0  0  0  0  0  0  0  0  0  0  0
    0.4628   -1.8174    1.6806 H   0  0  0  0  0  0  0  0  0  0  0  0
   -1.7921   -0.6255    2.0162 H   0  0  0  0  0  0  0  0  0  0  0  0
   -1.4167    1.7268    0.5112 H   0  0  0  0  0  0  0  0  0  0  0  0
   -2.0732    0.8611   -1.8457 H   0  0  0  0  0  0  0  0  0  0  0  0
   -1.9602   -0.8644   -1.2324 H   0  0  0  0  0  0  0  0  0  0  0  0
    0.2816    1.3613   -1.2803 H   0  0  0  0  0  0  0  0  0  0  0  0
  1  2  2  0
  2  3  1  0
  3  4  1  0
  3  5  1  0
  5  6  2  0
  6  7  1  0
  7  8  1  0
  8  9  1  0
  9  3  1  0
  9  7  1  0
  2 10  1  0
  4 11  1  0
  5 12  1  0
  6 13  1  0
  7 14  1  0
  8 15  1  0
  8 16  1  0
  9 17  1  0
M  END
