
     RDKit          3D

 15 16  0  0  0  0  0  0  0  0999 V2000
    2.0356   -1.8670    0.1240 O   0  0  0  0  0  0  0  0  0  0  0  0
    1.2365   -1.1094    0.6550 C   0  0  0  0  0  0  0  0  0  0  0  0
    0.9435    0.1658   -0.0346 C   0  0  0  0  0  0  0  0  0  0  0  0
    2.0901    0.7864   -0.5407 O   0  0  0  0  0  0  0  0  0  0  0  0
   -0.2540    0.0897   -0.9348 C   0  0  0  0  0  0  0  0  0  0  0  0
   -1.4205   -0.6415   -0.3336 C   0  0  0  0  0  0  0  0  0  0  0  0
   -1.5259    0.4738    0.6545 C   0  0  0  0  0  0  0  0  0  0  0  0
   -2.3507    0.8072    1.4578 O   0  0  0  0  0  0  0  0  0  0  0  0
   -0.2061    1.0165    0.2533 C   0  0  0  0  0  0  0  0  0  0  0  0
    0.7930   -1.4098    1.6066 H   0  0  0  0  0  0  0  0  0  0  0  0
    2.3956    1.4822    0.0814 H   0  0  0  0  0  0  0  0  0  0  0  0
   -0.2757    0.4500   -1.9556 H   0  0  0  0  0  0  0  0  0  0  0  0
   -2.2976   -0.8128   -0.9663 H   0  0  0  0  0  0  0  0  0  0  0  0
   -1.0416   -1.5435    0.2088 H   0  0  0  0  0  0  0  0  0  0  0  0
   -0.1221    2.1125    0.0492 H   0  0  0  0  0  0  0  0  0  0  0  0
  1  2  2  0
  2  3  1  0
  3  4  1  0
  3  5  1  0
  5  6  1  0
  6  7  1  0
  7  8  2  0
  7  9  1  0
  9  3  1  0
  9  5  1  0
  2 10  1  0
  4 11  1  0
  5 12  1  0
  6 13  1  0
  6 14  1  0
  9 15  1  0
M  END
