
     RDKit          3D

 19 20  0  0  0  0  0  0  0  0999 V2000
   -3.0862    0.6780   -0.8279 O   0  0  0  0  0  0  0  0  0  0  0  0
   -2.3476    0.0320   -0.1182 C   0  0  0  0  0  0  0  0  0  0  0  0
   -0.9179   -0.0204   -0.3910 C   0  0  0  0  0  0  0  0  0  0  0  0
   -0.3674    1.4125   -0.3190 C   0  0  0  0  0  0  0  0  0  0  0  0
    1.0562    1.4580    0.1079 C   0  0  0  0  0  0  0  0  0  0  0  0
    1.8591    0.3984    0.1476 C   0  0  0  0  0  0  0  0  0  0  0  0
    1.2708   -0.8524   -0.2569 C   0  0  0  0  0  0  0  0  0  0  0  0
    0.7095   -1.9557    0.4138 C   0  0  0  0  0  0  0  0  0  0  0  0
   -0.0964   -0.8043    0.5261 C   0  0  0  0  0  0  0  0  0  0  0  0
   -2.7698   -0.5014    0.7168 H   0  0  0  0  0  0  0  0  0  0  0  0
   -0.7627   -0.3134   -1.4717 H   0  0  0  0  0  0  0  0  0  0  0  0
   -0.9503    1.8902    0.5208 H   0  0  0  0  0  0  0  0  0  0  0  0
   -0.5844    1.9864   -1.2161 H   0  0  0  0  0  0  0  0  0  0  0  0
    1.4145    2.4502    0.3975 H   0  0  0  0  0  0  0  0  0  0  0  0
    2.8795    0.4961    0.4656 H   0  0  0  0  0  0  0  0  0  0  0  0
    1.1911   -0.8833   -1.3869 H   0  0  0  0  0  0  0  0  0  0  0  0
    0.3301   -2.8267   -0.1732 H   0  0  0  0  0  0  0  0  0  0  0  0
    1.2395   -2.3512    1.3269 H   0  0  0  0  0  0  0  0  0  0  0  0
   -0.0675   -0.2929    1.5378 H   0  0  0  0  0  0  0  0  0  0  0  0
  1  2  2  0
  2  3  1  0
  3  4  1  0
  4  5  1  0
  5  6  2  0
  6  7  1  0
  7  8  1  0
  8  9  1  0
  9  3  1  0
  9  7  1  0
  2 10  1  0
  3 11  1  0
  4 12  1  0
  4 13  1  0
  5 14  1  0
  6 15  1  0
  7 16  1  0
  8 17  1  0
  8 18  1  0
  9 19  1  0
M  END
