
     RDKit          3D

 17 17  0  0  0  0  0  0  0  0999 V2000
   -2.9137    0.1416    1.2674 O   0  0  0  0  0  0  0  0  0  0  0  0
   -1.8268   -0.3491    1.1306 C   0  0  0  0  0  0  0  0  0  0  0  0
   -1.2084   -0.3946   -0.2132 C   0  0  0  0  0  0  0  0  0  0  0  0
   -0.8074    0.9649   -0.5796 C   0  0  0  0  0  0  0  0  0  0  0  0
    0.3371    1.6302   -0.5039 C   0  0  0  0  0  0  0  0  0  0  0  0
    1.6115    1.1305    0.0129 C   0  0  0  0  0  0  0  0  0  0  0  0
    1.9678   -0.1341    0.1646 C   0  0  0  0  0  0  0  0  0  0  0  0
    1.1479   -1.3018   -0.1584 C   0  0  0  0  0  0  0  0  0  0  0  0
   -0.1551   -1.4190   -0.3157 C   0  0  0  0  0  0  0  0  0  0  0  0
   -1.3015   -0.7523    1.9646 H   0  0  0  0  0  0  0  0  0  0  0  0
   -2.0548   -0.6736   -0.9139 H   0  0  0  0  0  0  0  0  0  0  0  0
   -1.5950    1.5736   -1.0019 H   0  0  0  0  0  0  0  0  0  0  0  0
    0.3909    2.6543   -0.8446 H   0  0  0  0  0  0  0  0  0  0  0  0
    2.2982    1.9068    0.2846 H   0  0  0  0  0  0  0  0  0  0  0  0
    2.9508   -0.3101    0.5619 H   0  0  0  0  0  0  0  0  0  0  0  0
    1.6950   -2.2425   -0.2943 H   0  0  0  0  0  0  0  0  0  0  0  0
   -0.5363   -2.4247   -0.5610 H   0  0  0  0  0  0  0  0  0  0  0  0
  1  2  2  0
  2  3  1  0
  3  4  1  0
  4  5  2  0
  5  6  1  0
  6  7  2  0
  7  8  1  0
  8  9  2  0
  9  3  1  0
  2 10  1  0
  3 11  1  0
  4 12  1  0
  5 13  1  0
  6 14  1  0
  7 15  1  0
  8 16  1  0
  9 17  1  0
M  END
