
     RDKit          3D

 14 14  0  0  0  0  0  0  0  0999 V2000
   -1.4427   -1.8957   -0.5179 O   0  0  0  0  0  0  0  0  0  0  0  0
   -0.8907   -0.9084   -0.9870 C   0  0  0  0  0  0  0  0  0  0  0  0
    0.0686   -0.1865   -0.1574 C   0  0  0  0  0  0  0  0  0  0  0  0
    1.3484   -0.8590    0.1365 C   0  0  0  0  0  0  0  0  0  0  0  0
    1.8117   -0.7746    1.2452 O   0  0  0  0  0  0  0  0  0  0  0  0
   -0.6228    0.3571    1.0899 C   0  0  0  0  0  0  0  0  0  0  0  0
    0.2270    1.4526    1.0106 O   0  0  0  0  0  0  0  0  0  0  0  0
    0.2505    1.2671   -0.3859 C   0  0  0  0  0  0  0  0  0  0  0  0
   -1.1388   -0.6150   -1.9963 H   0  0  0  0  0  0  0  0  0  0  0  0
    1.8173   -1.4102   -0.6875 H   0  0  0  0  0  0  0  0  0  0  0  0
   -0.3832   -0.3361    1.9359 H   0  0  0  0  0  0  0  0  0  0  0  0
   -1.6929    0.5701    0.9589 H   0  0  0  0  0  0  0  0  0  0  0  0
   -0.6097    1.7673   -0.8700 H   0  0  0  0  0  0  0  0  0  0  0  0
    1.2572    1.5714   -0.7749 H   0  0  0  0  0  0  0  0  0  0  0  0
  1  2  2  0
  2  3  1  0
  3  4  1  0
  4  5  2  0
  3  6  1  0
  6  7  1  0
  7  8  1  0
  8  3  1  0
  2  9  1  0
  4 10  1  0
  6 11  1  0
  6 12  1  0
  8 13  1  0
  8 14  1  0
M  END
