
     RDKit          3D

 19 20  0  0  0  0  0  0  0  0999 V2000
    3.1091    0.2715    1.2957 O   0  0  0  0  0  0  0  0  0  0  0  0
    2.6099    0.1224    0.1992 C   0  0  0  0  0  0  0  0  0  0  0  0
    1.5555   -0.8904   -0.0842 C   0  0  0  0  0  0  0  0  0  0  0  0
    0.2516   -0.3317    0.3824 C   0  0  0  0  0  0  0  0  0  0  0  0
   -0.1663    0.9611   -0.2888 C   0  0  0  0  0  0  0  0  0  0  0  0
   -0.0550    2.0916    0.4860 O   0  0  0  0  0  0  0  0  0  0  0  0
   -1.5387    0.4494   -0.5804 C   0  0  0  0  0  0  0  0  0  0  0  0
   -2.2694   -0.4524    0.3096 C   0  0  0  0  0  0  0  0  0  0  0  0
   -0.9942   -0.9558   -0.2300 C   0  0  0  0  0  0  0  0  0  0  0  0
    2.9535    0.7624   -0.6049 H   0  0  0  0  0  0  0  0  0  0  0  0
    1.4847   -1.1352   -1.1487 H   0  0  0  0  0  0  0  0  0  0  0  0
    1.7555   -1.8162    0.5099 H   0  0  0  0  0  0  0  0  0  0  0  0
    0.1766   -0.3579    1.4767 H   0  0  0  0  0  0  0  0  0  0  0  0
    0.4198    1.0666   -1.2367 H   0  0  0  0  0  0  0  0  0  0  0  0
   -0.9442    2.3528    0.8506 H   0  0  0  0  0  0  0  0  0  0  0  0
   -1.9236    0.5874   -1.6178 H   0  0  0  0  0  0  0  0  0  0  0  0
   -2.2753   -0.2892    1.4239 H   0  0  0  0  0  0  0  0  0  0  0  0
   -3.2448   -0.8142   -0.0497 H   0  0  0  0  0  0  0  0  0  0  0  0
   -0.9048   -1.6221   -1.0928 H   0  0  0  0  0  0  0  0  0  0  0  0
  1  2  2  0
  2  3  1  0
  3  4  1  0
  4  5  1  0
  5  6  1  0
  5  7  1  0
  7  8  1  0
  8  9  1  0
  9  4  1  0
  9  7  1  0
  2 10  1  0
  3 11  1  0
  3 12  1  0
  4 13  1  0
  5 14  1  0
  6 15  1  0
  7 16  1  0
  8 17  1  0
  8 18  1  0
  9 19  1  0
M  END
