
     RDKit          3D

 15 15  0  0  0  0  0  0  0  0999 V2000
    2.2020   -1.0024    0.1788 O   0  0  0  0  0  0  0  0  0  0  0  0
    1.8218    0.0945   -0.2535 C   0  0  0  0  0  0  0  0  0  0  0  0
    0.8082    0.9075    0.4365 C   0  0  0  0  0  0  0  0  0  0  0  0
   -0.5917    0.4427    0.2622 C   0  0  0  0  0  0  0  0  0  0  0  0
   -0.9203   -0.9366    0.7365 C   0  0  0  0  0  0  0  0  0  0  0  0
   -1.7418   -1.0905   -0.3708 O   0  0  0  0  0  0  0  0  0  0  0  0
   -0.9781   -0.1243   -1.0629 C   0  0  0  0  0  0  0  0  0  0  0  0
    2.3023    0.4063   -1.1890 H   0  0  0  0  0  0  0  0  0  0  0  0
    0.8861    1.9504    0.0931 H   0  0  0  0  0  0  0  0  0  0  0  0
    1.0460    0.8498    1.5379 H   0  0  0  0  0  0  0  0  0  0  0  0
   -1.3163    1.2045    0.5896 H   0  0  0  0  0  0  0  0  0  0  0  0
   -1.5025   -0.9047    1.6637 H   0  0  0  0  0  0  0  0  0  0  0  0
   -0.0881   -1.6617    0.6952 H   0  0  0  0  0  0  0  0  0  0  0  0
   -1.7136    0.4854   -1.6605 H   0  0  0  0  0  0  0  0  0  0  0  0
   -0.2139   -0.6207   -1.6569 H   0  0  0  0  0  0  0  0  0  0  0  0
  1  2  2  0
  2  3  1  0
  3  4  1  0
  4  5  1  0
  5  6  1  0
  6  7  1  0
  7  4  1  0
  2  8  1  0
  3  9  1  0
  3 10  1  0
  4 11  1  0
  5 12  1  0
  5 13  1  0
  7 14  1  0
  7 15  1  0
M  END
