
     RDKit          3D

 19 20  0  0  0  0  0  0  0  0999 V2000
    2.5420   -1.6486   -0.6337 O   0  0  0  0  0  0  0  0  0  0  0  0
    2.3252   -0.5282   -0.2424 C   0  0  0  0  0  0  0  0  0  0  0  0
    1.0109   -0.1862    0.3034 C   0  0  0  0  0  0  0  0  0  0  0  0
    0.7340    1.2993    0.3214 C   0  0  0  0  0  0  0  0  0  0  0  0
   -0.3530    1.7332   -0.3410 O   0  0  0  0  0  0  0  0  0  0  0  0
   -1.5401    1.0676   -0.2466 C   0  0  0  0  0  0  0  0  0  0  0  0
   -1.3194   -0.2445    0.3812 C   0  0  0  0  0  0  0  0  0  0  0  0
   -1.2248   -1.5678   -0.0992 C   0  0  0  0  0  0  0  0  0  0  0  0
   -0.1140   -0.7809   -0.4486 C   0  0  0  0  0  0  0  0  0  0  0  0
    3.1043    0.2043   -0.3012 H   0  0  0  0  0  0  0  0  0  0  0  0
    0.9697   -0.5378    1.3665 H   0  0  0  0  0  0  0  0  0  0  0  0
    0.7253    1.6803    1.3630 H   0  0  0  0  0  0  0  0  0  0  0  0
    1.6377    1.7754   -0.1517 H   0  0  0  0  0  0  0  0  0  0  0  0
   -1.9551    0.9365   -1.2682 H   0  0  0  0  0  0  0  0  0  0  0  0
   -2.2956    1.6699    0.3128 H   0  0  0  0  0  0  0  0  0  0  0  0
   -1.1673   -0.1122    1.4955 H   0  0  0  0  0  0  0  0  0  0  0  0
   -1.0969   -2.4072    0.6279 H   0  0  0  0  0  0  0  0  0  0  0  0
   -1.9317   -1.9015   -0.9083 H   0  0  0  0  0  0  0  0  0  0  0  0
   -0.0513   -0.4515   -1.5307 H   0  0  0  0  0  0  0  0  0  0  0  0
  1  2  2  0
  2  3  1  0
  3  4  1  0
  4  5  1  0
  5  6  1  0
  6  7  1  0
  7  8  1  0
  8  9  1  0
  9  3  1  0
  9  7  1  0
  2 10  1  0
  3 11  1  0
  4 12  1  0
  4 13  1  0
  6 14  1  0
  6 15  1  0
  7 16  1  0
  8 17  1  0
  8 18  1  0
  9 19  1  0
M  END
