
     RDKit          3D

 17 18  0  0  0  0  0  0  0  0999 V2000
    1.6685   -1.0461   -1.8109 O   0  0  0  0  0  0  0  0  0  0  0  0
    1.5413   -1.0903   -0.5982 C   0  0  0  0  0  0  0  0  0  0  0  0
    0.2890   -0.9110    0.1299 C   0  0  0  0  0  0  0  0  0  0  0  0
   -0.7639   -0.1466   -0.6936 C   0  0  0  0  0  0  0  0  0  0  0  0
   -0.0595    1.1369   -0.8787 C   0  0  0  0  0  0  0  0  0  0  0  0
    0.7049    1.3441    0.2136 C   0  0  0  0  0  0  0  0  0  0  0  0
    0.3772    0.2286    1.1622 C   0  0  0  0  0  0  0  0  0  0  0  0
   -0.9366    0.3809    1.5304 O   0  0  0  0  0  0  0  0  0  0  0  0
   -1.7415    0.0403    0.4426 C   0  0  0  0  0  0  0  0  0  0  0  0
    2.4406   -1.2792   -0.0218 H   0  0  0  0  0  0  0  0  0  0  0  0
   -0.1515   -1.8103    0.5550 H   0  0  0  0  0  0  0  0  0  0  0  0
   -1.1109   -0.6564   -1.5539 H   0  0  0  0  0  0  0  0  0  0  0  0
   -0.0968    1.8345   -1.7041 H   0  0  0  0  0  0  0  0  0  0  0  0
    1.4186    2.1562    0.3796 H   0  0  0  0  0  0  0  0  0  0  0  0
    1.0879    0.0600    1.9317 H   0  0  0  0  0  0  0  0  0  0  0  0
   -2.5355    0.7520    0.2374 H   0  0  0  0  0  0  0  0  0  0  0  0
   -2.1320   -0.9936    0.6787 H   0  0  0  0  0  0  0  0  0  0  0  0
  1  2  2  0
  2  3  1  0
  3  4  1  0
  4  5  1  0
  5  6  2  0
  6  7  1  0
  7  8  1  0
  8  9  1  0
  7  3  1  0
  9  4  1  0
  2 10  1  0
  3 11  1  0
  4 12  1  0
  5 13  1  0
  6 14  1  0
  7 15  1  0
  9 16  1  0
  9 17  1  0
M  END
