
     RDKit          3D

 19 20  0  0  0  0  0  0  0  0999 V2000
    1.6484   -2.2390    0.8145 O   0  0  0  0  0  0  0  0  0  0  0  0
    1.8203   -1.0533    0.6246 C   0  0  0  0  0  0  0  0  0  0  0  0
    1.2743   -0.4162   -0.5724 C   0  0  0  0  0  0  0  0  0  0  0  0
    1.5366    0.9281   -0.6722 O   0  0  0  0  0  0  0  0  0  0  0  0
    0.4290    1.6330   -0.2709 C   0  0  0  0  0  0  0  0  0  0  0  0
   -0.7801    0.8110   -0.6074 C   0  0  0  0  0  0  0  0  0  0  0  0
   -1.6246    0.3705    0.5460 C   0  0  0  0  0  0  0  0  0  0  0  0
   -0.9600   -0.9967    0.5104 C   0  0  0  0  0  0  0  0  0  0  0  0
   -0.2191   -0.5786   -0.7087 C   0  0  0  0  0  0  0  0  0  0  0  0
    2.3812   -0.4996    1.3603 H   0  0  0  0  0  0  0  0  0  0  0  0
    1.7535   -0.9045   -1.4709 H   0  0  0  0  0  0  0  0  0  0  0  0
    0.4086    2.6163   -0.7802 H   0  0  0  0  0  0  0  0  0  0  0  0
    0.3922    1.8475    0.8166 H   0  0  0  0  0  0  0  0  0  0  0  0
   -1.3243    1.1915   -1.4835 H   0  0  0  0  0  0  0  0  0  0  0  0
   -2.7146    0.3221    0.3660 H   0  0  0  0  0  0  0  0  0  0  0  0
   -1.3802    0.9763    1.4526 H   0  0  0  0  0  0  0  0  0  0  0  0
   -0.4035   -1.1558    1.4336 H   0  0  0  0  0  0  0  0  0  0  0  0
   -1.7038   -1.8050    0.3164 H   0  0  0  0  0  0  0  0  0  0  0  0
   -0.5337   -1.0475   -1.6746 H   0  0  0  0  0  0  0  0  0  0  0  0
  1  2  2  0
  2  3  1  0
  3  4  1  0
  4  5  1  0
  5  6  1  0
  6  7  1  0
  7  8  1  0
  8  9  1  0
  9  3  1  0
  9  6  1  0
  2 10  1  0
  3 11  1  0
  5 12  1  0
  5 13  1  0
  6 14  1  0
  7 15  1  0
  7 16  1  0
  8 17  1  0
  8 18  1  0
  9 19  1  0
M  END
