
     RDKit          3D

 13 13  0  0  0  0  0  0  0  0999 V2000
    4.1939    0.4169   -3.3055 O   0  0  0  0  0  0  0  0  0  0  0  0
    3.3518    1.1997   -2.8295 C   0  0  0  0  0  0  0  0  0  0  0  0
    2.2868    0.7181   -2.0184 C   0  0  0  0  0  0  0  0  0  0  0  0
    1.3691    0.2884   -1.3322 C   0  0  0  0  0  0  0  0  0  0  0  0
    0.2959   -0.2083   -0.5580 C   0  0  0  0  0  0  0  0  0  0  0  0
   -0.6089   -0.6370    0.1200 C   0  0  0  0  0  0  0  0  0  0  0  0
   -1.7034   -1.1566    0.9099 C   0  0  0  0  0  0  0  0  0  0  0  0
   -2.7194   -0.2552    1.3769 C   0  0  0  0  0  0  0  0  0  0  0  0
   -1.6492   -0.6198    2.2844 O   0  0  0  0  0  0  0  0  0  0  0  0
    3.4294    2.2456   -3.0323 H   0  0  0  0  0  0  0  0  0  0  0  0
   -1.8735   -2.2607    0.9064 H   0  0  0  0  0  0  0  0  0  0  0  0
   -2.6905    0.8081    1.0306 H   0  0  0  0  0  0  0  0  0  0  0  0
   -3.6821   -0.5393    1.8145 H   0  0  0  0  0  0  0  0  0  0  0  0
  1  2  2  0
  2  3  1  0
  3  4  3  0
  4  5  1  0
  5  6  3  0
  6  7  1  0
  7  8  1  0
  8  9  1  0
  9  7  1  0
  2 10  1  0
  7 11  1  0
  8 12  1  0
  8 13  1  0
M  END
