
     RDKit          3D

 17 18  0  0  0  0  0  0  0  0999 V2000
    2.9435   -0.1494   -0.4524 O   0  0  0  0  0  0  0  0  0  0  0  0
    1.7811    0.0670   -0.7010 C   0  0  0  0  0  0  0  0  0  0  0  0
    0.7371   -0.3406    0.2267 C   0  0  0  0  0  0  0  0  0  0  0  0
    1.2063   -0.9734    1.3699 O   0  0  0  0  0  0  0  0  0  0  0  0
   -0.5070   -0.9495   -0.3755 C   0  0  0  0  0  0  0  0  0  0  0  0
   -0.9152    0.0698   -1.3578 C   0  0  0  0  0  0  0  0  0  0  0  0
   -0.7366    1.2224   -0.6795 C   0  0  0  0  0  0  0  0  0  0  0  0
   -0.2527    0.7594    0.6287 C   0  0  0  0  0  0  0  0  0  0  0  0
   -1.2068   -0.4139    0.8858 C   0  0  0  0  0  0  0  0  0  0  0  0
    1.5229    0.5652   -1.6168 H   0  0  0  0  0  0  0  0  0  0  0  0
    1.3744   -0.3229    2.1136 H   0  0  0  0  0  0  0  0  0  0  0  0
   -0.5606   -1.9765   -0.5775 H   0  0  0  0  0  0  0  0  0  0  0  0
   -1.2664   -0.1007   -2.3660 H   0  0  0  0  0  0  0  0  0  0  0  0
   -0.9019    2.2426   -0.9987 H   0  0  0  0  0  0  0  0  0  0  0  0
   -0.0121    1.4047    1.4128 H   0  0  0  0  0  0  0  0  0  0  0  0
   -0.9714   -1.0083    1.7644 H   0  0  0  0  0  0  0  0  0  0  0  0
   -2.2346   -0.0961    0.7232 H   0  0  0  0  0  0  0  0  0  0  0  0
  1  2  2  0
  2  3  1  0
  3  4  1  0
  3  5  1  0
  5  6  1  0
  6  7  2  0
  7  8  1  0
  8  9  1  0
  8  3  1  0
  9  5  1  0
  2 10  1  0
  4 11  1  0
  5 12  1  0
  6 13  1  0
  7 14  1  0
  8 15  1  0
  9 16  1  0
  9 17  1  0
M  END
