
     RDKit          3D

 17 19  0  0  0  0  0  0  0  0999 V2000
    2.4524   -0.2379   -1.2574 O   0  0  0  0  0  0  0  0  0  0  0  0
    2.2381    0.4384   -0.2819 C   0  0  0  0  0  0  0  0  0  0  0  0
    0.9050    0.3427    0.3578 C   0  0  0  0  0  0  0  0  0  0  0  0
   -0.2611    0.6811   -0.5335 C   0  0  0  0  0  0  0  0  0  0  0  0
   -1.4728    1.0083    0.3448 C   0  0  0  0  0  0  0  0  0  0  0  0
   -1.6997   -0.0965    1.1190 O   0  0  0  0  0  0  0  0  0  0  0  0
   -1.1087   -1.1993    0.5312 C   0  0  0  0  0  0  0  0  0  0  0  0
    0.3738   -1.0941    0.3847 C   0  0  0  0  0  0  0  0  0  0  0  0
   -0.4789   -0.7835   -0.7361 C   0  0  0  0  0  0  0  0  0  0  0  0
    2.9764    1.0929    0.1226 H   0  0  0  0  0  0  0  0  0  0  0  0
    0.8362    0.7508    1.3866 H   0  0  0  0  0  0  0  0  0  0  0  0
   -0.0964    1.3165   -1.3829 H   0  0  0  0  0  0  0  0  0  0  0  0
   -1.2233    1.9293    0.9160 H   0  0  0  0  0  0  0  0  0  0  0  0
   -2.3090    1.2047   -0.3656 H   0  0  0  0  0  0  0  0  0  0  0  0
   -1.6136   -2.1634    0.5718 H   0  0  0  0  0  0  0  0  0  0  0  0
    1.0496   -1.9253    0.5053 H   0  0  0  0  0  0  0  0  0  0  0  0
   -0.5681   -1.2647   -1.6824 H   0  0  0  0  0  0  0  0  0  0  0  0
  1  2  2  0
  2  3  1  0
  3  4  1  0
  4  5  1  0
  5  6  1  0
  6  7  1  0
  7  8  1  0
  8  9  1  0
  8  3  1  0
  9  4  1  0
  9  7  1  0
  2 10  1  0
  3 11  1  0
  4 12  1  0
  5 13  1  0
  5 14  1  0
  7 15  1  0
  8 16  1  0
  9 17  1  0
M  END
