
     RDKit          3D

 15 16  0  0  0  0  0  0  0  0999 V2000
    2.3362    1.5527    0.9213 O   0  0  0  0  0  0  0  0  0  0  0  0
    1.8945    0.5324    0.3882 C   0  0  0  0  0  0  0  0  0  0  0  0
    0.5105    0.2533    0.1783 C   0  0  0  0  0  0  0  0  0  0  0  0
   -0.0765   -1.0358    0.7658 C   0  0  0  0  0  0  0  0  0  0  0  0
   -1.4492   -0.8128    0.2426 C   0  0  0  0  0  0  0  0  0  0  0  0
   -2.3990   -1.5176    0.2530 O   0  0  0  0  0  0  0  0  0  0  0  0
   -1.3116    0.5514   -0.3059 C   0  0  0  0  0  0  0  0  0  0  0  0
   -0.0987    0.4045   -1.1896 C   0  0  0  0  0  0  0  0  0  0  0  0
   -0.4291    1.1946    0.6017 O   0  0  0  0  0  0  0  0  0  0  0  0
    2.6476   -0.1785    0.0705 H   0  0  0  0  0  0  0  0  0  0  0  0
   -0.0434   -0.9404    1.8665 H   0  0  0  0  0  0  0  0  0  0  0  0
    0.4020   -1.9298    0.3720 H   0  0  0  0  0  0  0  0  0  0  0  0
   -2.1540    1.0912   -0.6429 H   0  0  0  0  0  0  0  0  0  0  0  0
   -0.0840   -0.4671   -1.8380 H   0  0  0  0  0  0  0  0  0  0  0  0
    0.2547    1.3018   -1.6837 H   0  0  0  0  0  0  0  0  0  0  0  0
  1  2  2  0
  2  3  1  0
  3  4  1  0
  4  5  1  0
  5  6  2  0
  5  7  1  0
  7  8  1  0
  7  9  1  0
  8  3  1  0
  9  3  1  0
  2 10  1  0
  4 11  1  0
  4 12  1  0
  7 13  1  0
  8 14  1  0
  8 15  1  0
M  END
