
     RDKit          3D

 16 15  0  0  0  0  0  0  0  0999 V2000
    1.6582   -1.3919   -1.4101 O   0  0  0  0  0  0  0  0  0  0  0  0
    1.0166   -0.3587   -1.3045 C   0  0  0  0  0  0  0  0  0  0  0  0
    0.6998    0.2416    0.0081 C   0  0  0  0  0  0  0  0  0  0  0  0
    1.8788    0.0839    0.8840 C   0  0  0  0  0  0  0  0  0  0  0  0
    2.7415    0.9281    0.8371 O   0  0  0  0  0  0  0  0  0  0  0  0
   -0.5455   -0.3492    0.6277 C   0  0  0  0  0  0  0  0  0  0  0  0
   -1.7606   -0.1635   -0.2101 C   0  0  0  0  0  0  0  0  0  0  0  0
   -2.0096    1.1924   -0.4137 O   0  0  0  0  0  0  0  0  0  0  0  0
    0.6920    0.0935   -2.2364 H   0  0  0  0  0  0  0  0  0  0  0  0
    0.5070    1.3427   -0.1360 H   0  0  0  0  0  0  0  0  0  0  0  0
    1.9869   -0.7484    1.5506 H   0  0  0  0  0  0  0  0  0  0  0  0
   -0.7351    0.0795    1.6304 H   0  0  0  0  0  0  0  0  0  0  0  0
   -0.3646   -1.4403    0.7793 H   0  0  0  0  0  0  0  0  0  0  0  0
   -1.6516   -0.6834   -1.1877 H   0  0  0  0  0  0  0  0  0  0  0  0
   -2.6295   -0.5614    0.3500 H   0  0  0  0  0  0  0  0  0  0  0  0
   -1.4844    1.7350    0.2314 H   0  0  0  0  0  0  0  0  0  0  0  0
  1  2  2  0
  2  3  1  0
  3  4  1  0
  4  5  2  0
  3  6  1  0
  6  7  1  0
  7  8  1  0
  2  9  1  0
  3 10  1  0
  4 11  1  0
  6 12  1  0
  6 13  1  0
  7 14  1  0
  7 15  1  0
  8 16  1  0
M  END
