
     RDKit          3D

 15 18  0  0  0  0  0  0  0  0999 V2000
    1.5752    0.2115   -2.1494 O   0  0  0  0  0  0  0  0  0  0  0  0
    1.5122    0.6175   -0.9997 C   0  0  0  0  0  0  0  0  0  0  0  0
    0.8393    0.0361    0.1147 C   0  0  0  0  0  0  0  0  0  0  0  0
   -0.0431    0.9937    1.0678 C   0  0  0  0  0  0  0  0  0  0  0  0
   -1.3949    0.6083    1.0519 O   0  0  0  0  0  0  0  0  0  0  0  0
   -1.5945   -0.5591    0.2974 C   0  0  0  0  0  0  0  0  0  0  0  0
   -0.6298   -0.1745   -0.4153 C   0  0  0  0  0  0  0  0  0  0  0  0
   -0.1819   -1.1941   -0.1736 C   0  0  0  0  0  0  0  0  0  0  0  0
    0.2182   -0.2336    1.0277 C   0  0  0  0  0  0  0  0  0  0  0  0
    2.0496    1.5479   -0.8315 H   0  0  0  0  0  0  0  0  0  0  0  0
    0.2196    2.0362    0.8904 H   0  0  0  0  0  0  0  0  0  0  0  0
   -2.2348   -1.3489    0.6957 H   0  0  0  0  0  0  0  0  0  0  0  0
   -0.5204    0.6361   -1.1023 H   0  0  0  0  0  0  0  0  0  0  0  0
    0.0891   -2.1287    0.3254 H   0  0  0  0  0  0  0  0  0  0  0  0
    0.0962   -1.0486    1.7124 H   0  0  0  0  0  0  0  0  0  0  0  0
  1  2  2  0
  2  3  1  0
  3  4  1  0
  4  5  1  0
  5  6  1  0
  6  7  1  0
  7  8  1  0
  7  9  1  0
  8  3  1  0
  9  3  1  0
  9  4  1  0
  8  6  1  0
  2 10  1  0
  4 11  1  0
  6 12  1  0
  7 13  1  0
  8 14  1  0
  9 15  1  0
M  END
