
     RDKit          3D

 14 14  0  0  0  0  0  0  0  0999 V2000
   -2.5318   -0.6925    0.5931 O   0  0  0  0  0  0  0  0  0  0  0  0
   -1.9495    0.2484    0.1081 C   0  0  0  0  0  0  0  0  0  0  0  0
   -0.6008    0.1693   -0.4949 C   0  0  0  0  0  0  0  0  0  0  0  0
    0.1185   -1.1163   -0.1631 C   0  0  0  0  0  0  0  0  0  0  0  0
    1.5183   -0.6950    0.0930 C   0  0  0  0  0  0  0  0  0  0  0  0
    1.5846    0.6076    0.2969 C   0  0  0  0  0  0  0  0  0  0  0  0
    0.2590    1.1922    0.2013 C   0  0  0  0  0  0  0  0  0  0  0  0
   -0.1093    2.3212    0.6119 O   0  0  0  0  0  0  0  0  0  0  0  0
   -2.4420    1.2071    0.1141 H   0  0  0  0  0  0  0  0  0  0  0  0
   -0.5923    0.3975   -1.5803 H   0  0  0  0  0  0  0  0  0  0  0  0
    0.1346   -1.7511   -1.0752 H   0  0  0  0  0  0  0  0  0  0  0  0
   -0.3296   -1.6692    0.6715 H   0  0  0  0  0  0  0  0  0  0  0  0
    2.4066   -1.3589    0.1161 H   0  0  0  0  0  0  0  0  0  0  0  0
    2.5337    1.1396    0.5074 H   0  0  0  0  0  0  0  0  0  0  0  0
  1  2  2  0
  2  3  1  0
  3  4  1  0
  4  5  1  0
  5  6  2  0
  6  7  1  0
  7  8  2  0
  7  3  1  0
  2  9  1  0
  3 10  1  0
  4 11  1  0
  4 12  1  0
  5 13  1  0
  6 14  1  0
M  END
