
     RDKit          3D

 17 17  0  0  0  0  0  0  0  0999 V2000
    2.3768   -1.2244    1.1984 O   0  0  0  0  0  0  0  0  0  0  0  0
    2.2521   -0.3940    0.3222 C   0  0  0  0  0  0  0  0  0  0  0  0
    1.1146    0.5603    0.2532 C   0  0  0  0  0  0  0  0  0  0  0  0
    1.2370    1.3686   -0.8297 O   0  0  0  0  0  0  0  0  0  0  0  0
   -0.1460   -0.1882    0.3967 C   0  0  0  0  0  0  0  0  0  0  0  0
   -1.4360    0.5765    0.3573 C   0  0  0  0  0  0  0  0  0  0  0  0
   -2.0269   -0.6647   -0.1868 C   0  0  0  0  0  0  0  0  0  0  0  0
   -3.0904   -1.2096   -0.1557 O   0  0  0  0  0  0  0  0  0  0  0  0
   -0.6977   -0.9177   -0.7845 C   0  0  0  0  0  0  0  0  0  0  0  0
    3.0126   -0.3556   -0.4414 H   0  0  0  0  0  0  0  0  0  0  0  0
    1.2176    1.2125    1.1722 H   0  0  0  0  0  0  0  0  0  0  0  0
    0.6561    2.1363   -0.8808 H   0  0  0  0  0  0  0  0  0  0  0  0
   -0.1273   -0.8506    1.2833 H   0  0  0  0  0  0  0  0  0  0  0  0
   -1.4953    1.3728   -0.4096 H   0  0  0  0  0  0  0  0  0  0  0  0
   -1.8198    0.9136    1.3342 H   0  0  0  0  0  0  0  0  0  0  0  0
   -0.6229   -0.3558   -1.7557 H   0  0  0  0  0  0  0  0  0  0  0  0
   -0.4045   -1.9800   -0.8731 H   0  0  0  0  0  0  0  0  0  0  0  0
  1  2  2  0
  2  3  1  0
  3  4  1  0
  3  5  1  0
  5  6  1  0
  6  7  1  0
  7  8  2  0
  7  9  1  0
  9  5  1  0
  2 10  1  0
  3 11  1  0
  4 12  1  0
  5 13  1  0
  6 14  1  0
  6 15  1  0
  9 16  1  0
  9 17  1  0
M  END
