
     RDKit          3D

 17 18  0  0  0  0  0  0  0  0999 V2000
   -2.3107    1.3110   -1.0746 O   0  0  0  0  0  0  0  0  0  0  0  0
   -2.4796    0.1774   -0.6993 C   0  0  0  0  0  0  0  0  0  0  0  0
   -1.3484   -0.6988   -0.3337 C   0  0  0  0  0  0  0  0  0  0  0  0
   -0.6169   -0.0884    0.8682 C   0  0  0  0  0  0  0  0  0  0  0  0
    0.4365    0.3877   -0.0707 C   0  0  0  0  0  0  0  0  0  0  0  0
    1.8816    0.4113    0.3277 C   0  0  0  0  0  0  0  0  0  0  0  0
    2.6956   -0.2764   -0.5675 O   0  0  0  0  0  0  0  0  0  0  0  0
    0.1478    0.9406   -1.2862 O   0  0  0  0  0  0  0  0  0  0  0  0
   -0.1121   -0.4023   -1.1420 C   0  0  0  0  0  0  0  0  0  0  0  0
   -3.4762   -0.2085   -0.6277 H   0  0  0  0  0  0  0  0  0  0  0  0
   -1.5869   -1.7651   -0.2300 H   0  0  0  0  0  0  0  0  0  0  0  0
   -1.1960    0.6655    1.4130 H   0  0  0  0  0  0  0  0  0  0  0  0
   -0.3126   -0.9091    1.5427 H   0  0  0  0  0  0  0  0  0  0  0  0
    2.2105    1.4899    0.2635 H   0  0  0  0  0  0  0  0  0  0  0  0
    1.9764    0.0413    1.3666 H   0  0  0  0  0  0  0  0  0  0  0  0
    3.6197    0.1023   -0.5895 H   0  0  0  0  0  0  0  0  0  0  0  0
    0.4711   -1.1785   -1.6120 H   0  0  0  0  0  0  0  0  0  0  0  0
  1  2  2  0
  2  3  1  0
  3  4  1  0
  4  5  1  0
  5  6  1  0
  6  7  1  0
  5  8  1  0
  8  9  1  0
  9  3  1  0
  9  5  1  0
  2 10  1  0
  3 11  1  0
  4 12  1  0
  4 13  1  0
  6 14  1  0
  6 15  1  0
  7 16  1  0
  9 17  1  0
M  END
