
     RDKit          3D

 15 15  0  0  0  0  0  0  0  0999 V2000
    2.6472    0.5239    0.6302 O   0  0  0  0  0  0  0  0  0  0  0  0
    1.4972    0.7457    0.2929 C   0  0  0  0  0  0  0  0  0  0  0  0
    0.5534   -0.3855    0.0732 C   0  0  0  0  0  0  0  0  0  0  0  0
    1.0984   -1.6412    0.2834 O   0  0  0  0  0  0  0  0  0  0  0  0
   -0.1741   -0.2206   -1.2462 C   0  0  0  0  0  0  0  0  0  0  0  0
   -1.1444    0.6657   -0.4925 C   0  0  0  0  0  0  0  0  0  0  0  0
   -0.7831   -0.1374    0.7369 C   0  0  0  0  0  0  0  0  0  0  0  0
    1.1682    1.7677    0.1547 H   0  0  0  0  0  0  0  0  0  0  0  0
    0.4950   -2.2192    0.7847 H   0  0  0  0  0  0  0  0  0  0  0  0
    0.4443    0.2918   -2.0054 H   0  0  0  0  0  0  0  0  0  0  0  0
   -0.6989   -1.1313   -1.6051 H   0  0  0  0  0  0  0  0  0  0  0  0
   -2.1997    0.5794   -0.8154 H   0  0  0  0  0  0  0  0  0  0  0  0
   -0.7669    1.7067   -0.4690 H   0  0  0  0  0  0  0  0  0  0  0  0
   -0.7212    0.4917    1.6638 H   0  0  0  0  0  0  0  0  0  0  0  0
   -1.4154   -1.0376    0.8585 H   0  0  0  0  0  0  0  0  0  0  0  0
  1  2  2  0
  2  3  1  0
  3  4  1  0
  3  5  1  0
  5  6  1  0
  6  7  1  0
  7  3  1  0
  2  8  1  0
  4  9  1  0
  5 10  1  0
  5 11  1  0
  6 12  1  0
  6 13  1  0
  7 14  1  0
  7 15  1  0
M  END
