
     RDKit          3D

 17 17  0  0  0  0  0  0  0  0999 V2000
    1.1835    1.6097   -1.8899 O   0  0  0  0  0  0  0  0  0  0  0  0
    1.8683    0.8737   -1.2129 C   0  0  0  0  0  0  0  0  0  0  0  0
    1.2824    0.2041   -0.0340 C   0  0  0  0  0  0  0  0  0  0  0  0
    2.1293    0.5319    1.1375 C   0  0  0  0  0  0  0  0  0  0  0  0
    3.3210    0.3141    1.1164 O   0  0  0  0  0  0  0  0  0  0  0  0
   -0.0467    0.5171    0.1616 O   0  0  0  0  0  0  0  0  0  0  0  0
   -0.8965   -0.5796    0.0382 C   0  0  0  0  0  0  0  0  0  0  0  0
   -2.1484   -0.5585    0.8399 C   0  0  0  0  0  0  0  0  0  0  0  0
   -2.2238   -0.3859   -0.6376 C   0  0  0  0  0  0  0  0  0  0  0  0
    2.8954    0.7314   -1.4988 H   0  0  0  0  0  0  0  0  0  0  0  0
    1.3096   -0.9045   -0.2495 H   0  0  0  0  0  0  0  0  0  0  0  0
    1.6983    0.9670    2.0212 H   0  0  0  0  0  0  0  0  0  0  0  0
   -0.4277   -1.5724   -0.1998 H   0  0  0  0  0  0  0  0  0  0  0  0
   -2.3678    0.3651    1.4248 H   0  0  0  0  0  0  0  0  0  0  0  0
   -2.5265   -1.4930    1.2939 H   0  0  0  0  0  0  0  0  0  0  0  0
   -2.3810    0.6014   -1.0926 H   0  0  0  0  0  0  0  0  0  0  0  0
   -2.6692   -1.2215   -1.2184 H   0  0  0  0  0  0  0  0  0  0  0  0
  1  2  2  0
  2  3  1  0
  3  4  1  0
  4  5  2  0
  3  6  1  0
  6  7  1  0
  7  8  1  0
  8  9  1  0
  9  7  1  0
  2 10  1  0
  3 11  1  0
  4 12  1  0
  7 13  1  0
  8 14  1  0
  8 15  1  0
  9 16  1  0
  9 17  1  0
M  END
