
     RDKit          3D

 18 18  0  0  0  0  0  0  0  0999 V2000
   -2.4733   -0.4424    1.8212 O   0  0  0  0  0  0  0  0  0  0  0  0
   -2.7237   -0.6858    0.6584 C   0  0  0  0  0  0  0  0  0  0  0  0
   -1.7703   -0.5080   -0.4542 C   0  0  0  0  0  0  0  0  0  0  0  0
   -0.4634    0.0185    0.1116 C   0  0  0  0  0  0  0  0  0  0  0  0
    0.5664    0.2271   -0.9687 C   0  0  0  0  0  0  0  0  0  0  0  0
    1.8217    0.7382   -0.3810 C   0  0  0  0  0  0  0  0  0  0  0  0
    2.6190    0.1142    0.5874 C   0  0  0  0  0  0  0  0  0  0  0  0
    1.6068    1.1422    1.0318 O   0  0  0  0  0  0  0  0  0  0  0  0
   -3.7210   -1.0580    0.4449 H   0  0  0  0  0  0  0  0  0  0  0  0
   -1.5577   -1.5046   -0.8806 H   0  0  0  0  0  0  0  0  0  0  0  0
   -2.1617    0.1208   -1.2617 H   0  0  0  0  0  0  0  0  0  0  0  0
   -0.0802   -0.7483    0.8183 H   0  0  0  0  0  0  0  0  0  0  0  0
   -0.7204    0.9569    0.6417 H   0  0  0  0  0  0  0  0  0  0  0  0
    0.1379    0.9547   -1.7030 H   0  0  0  0  0  0  0  0  0  0  0  0
    0.7359   -0.7117   -1.5592 H   0  0  0  0  0  0  0  0  0  0  0  0
    2.2325    1.6634   -0.8882 H   0  0  0  0  0  0  0  0  0  0  0  0
    3.6032    0.5354    0.8643 H   0  0  0  0  0  0  0  0  0  0  0  0
    2.3484   -0.8126    1.1169 H   0  0  0  0  0  0  0  0  0  0  0  0
  1  2  2  0
  2  3  1  0
  3  4  1  0
  4  5  1  0
  5  6  1  0
  6  7  1  0
  7  8  1  0
  8  6  1  0
  2  9  1  0
  3 10  1  0
  3 11  1  0
  4 12  1  0
  4 13  1  0
  5 14  1  0
  5 15  1  0
  6 16  1  0
  7 17  1  0
  7 18  1  0
M  END
