
     RDKit          3D

 17 17  0  0  0  0  0  0  0  0999 V2000
    2.9542    1.6057    0.3551 O   0  0  0  0  0  0  0  0  0  0  0  0
    2.7445    0.4607   -0.0394 C   0  0  0  0  0  0  0  0  0  0  0  0
    1.4792    0.1715   -0.7816 C   0  0  0  0  0  0  0  0  0  0  0  0
    0.5196   -0.5141    0.0847 C   0  0  0  0  0  0  0  0  0  0  0  0
    0.7915   -1.5874    0.5449 O   0  0  0  0  0  0  0  0  0  0  0  0
   -0.8599    0.0078    0.4458 C   0  0  0  0  0  0  0  0  0  0  0  0
   -0.8780    1.1064    1.2061 O   0  0  0  0  0  0  0  0  0  0  0  0
   -1.8194    0.0325   -0.7055 C   0  0  0  0  0  0  0  0  0  0  0  0
   -1.9860   -0.9622    0.3410 C   0  0  0  0  0  0  0  0  0  0  0  0
    3.4584   -0.3102    0.1391 H   0  0  0  0  0  0  0  0  0  0  0  0
    1.7728   -0.6170   -1.5584 H   0  0  0  0  0  0  0  0  0  0  0  0
    1.1109    1.0510   -1.3573 H   0  0  0  0  0  0  0  0  0  0  0  0
   -0.6365    1.9610    0.7310 H   0  0  0  0  0  0  0  0  0  0  0  0
   -2.5486    0.8977   -0.6855 H   0  0  0  0  0  0  0  0  0  0  0  0
   -1.5404   -0.2603   -1.6972 H   0  0  0  0  0  0  0  0  0  0  0  0
   -1.7323   -2.0446    0.0171 H   0  0  0  0  0  0  0  0  0  0  0  0
   -2.8300   -0.9985    1.0507 H   0  0  0  0  0  0  0  0  0  0  0  0
  1  2  2  0
  2  3  1  0
  3  4  1  0
  4  5  2  0
  4  6  1  0
  6  7  1  0
  6  8  1  0
  8  9  1  0
  9  6  1  0
  2 10  1  0
  3 11  1  0
  3 12  1  0
  7 13  1  0
  8 14  1  0
  8 15  1  0
  9 16  1  0
  9 17  1  0
M  END
