
     RDKit          3D

 17 18  0  0  0  0  0  0  0  0999 V2000
   -0.7413    2.3994    1.1745 O   0  0  0  0  0  0  0  0  0  0  0  0
    0.2086    1.7210    0.7527 C   0  0  0  0  0  0  0  0  0  0  0  0
    0.0865    0.6058    0.0124 C   0  0  0  0  0  0  0  0  0  0  0  0
    0.1004    0.4331   -1.4703 C   0  0  0  0  0  0  0  0  0  0  0  0
   -0.0716   -0.9685   -0.9468 C   0  0  0  0  0  0  0  0  0  0  0  0
    0.9670   -0.6233    0.0705 C   0  0  0  0  0  0  0  0  0  0  0  0
    0.8977   -1.3063    1.2805 O   0  0  0  0  0  0  0  0  0  0  0  0
   -1.0734   -0.3487    0.0001 C   0  0  0  0  0  0  0  0  0  0  0  0
   -1.3133   -1.0315    1.1586 O   0  0  0  0  0  0  0  0  0  0  0  0
    1.1862    2.1374    1.0551 H   0  0  0  0  0  0  0  0  0  0  0  0
    1.0691    0.6876   -1.8937 H   0  0  0  0  0  0  0  0  0  0  0  0
   -0.7961    0.7785   -2.0123 H   0  0  0  0  0  0  0  0  0  0  0  0
   -0.1825   -1.8078   -1.4744 H   0  0  0  0  0  0  0  0  0  0  0  0
    1.9999   -0.4821   -0.2999 H   0  0  0  0  0  0  0  0  0  0  0  0
    1.7810   -1.5785    1.5917 H   0  0  0  0  0  0  0  0  0  0  0  0
   -1.9481    0.0629   -0.5408 H   0  0  0  0  0  0  0  0  0  0  0  0
   -2.1701   -0.6789    1.5420 H   0  0  0  0  0  0  0  0  0  0  0  0
  1  2  2  0
  2  3  1  0
  3  4  1  0
  4  5  1  0
  5  6  1  0
  6  7  1  0
  5  8  1  0
  8  9  1  0
  6  3  1  0
  8  3  1  0
  2 10  1  0
  4 11  1  0
  4 12  1  0
  5 13  1  0
  6 14  1  0
  7 15  1  0
  8 16  1  0
  9 17  1  0
M  END
