
     RDKit          3D

 19 19  0  0  0  0  0  0  0  0999 V2000
    3.4344   -0.4225   -0.9137 O   0  0  0  0  0  0  0  0  0  0  0  0
    2.4574    0.1230   -0.4544 C   0  0  0  0  0  0  0  0  0  0  0  0
    1.3164   -0.6914    0.0098 C   0  0  0  0  0  0  0  0  0  0  0  0
    0.1864    0.1526    0.5517 C   0  0  0  0  0  0  0  0  0  0  0  0
   -0.9691   -0.6812    1.0216 C   0  0  0  0  0  0  0  0  0  0  0  0
   -1.9715   -0.5954    0.0903 O   0  0  0  0  0  0  0  0  0  0  0  0
   -1.4021   -0.1910   -1.1158 C   0  0  0  0  0  0  0  0  0  0  0  0
   -0.4368    0.8793   -0.6457 C   0  0  0  0  0  0  0  0  0  0  0  0
   -1.2004    1.9390   -0.1719 O   0  0  0  0  0  0  0  0  0  0  0  0
    2.4569    1.1960   -0.4009 H   0  0  0  0  0  0  0  0  0  0  0  0
    1.6052   -1.4195    0.8027 H   0  0  0  0  0  0  0  0  0  0  0  0
    0.9789   -1.3021   -0.8506 H   0  0  0  0  0  0  0  0  0  0  0  0
    0.5076    0.9070    1.2612 H   0  0  0  0  0  0  0  0  0  0  0  0
   -1.3464   -0.2787    2.0023 H   0  0  0  0  0  0  0  0  0  0  0  0
   -0.7246   -1.7369    1.1966 H   0  0  0  0  0  0  0  0  0  0  0  0
   -0.8965   -1.0324   -1.6146 H   0  0  0  0  0  0  0  0  0  0  0  0
   -2.1394    0.3182   -1.7691 H   0  0  0  0  0  0  0  0  0  0  0  0
    0.3034    1.1634   -1.3891 H   0  0  0  0  0  0  0  0  0  0  0  0
   -2.1598    1.6725   -0.0233 H   0  0  0  0  0  0  0  0  0  0  0  0
  1  2  2  0
  2  3  1  0
  3  4  1  0
  4  5  1  0
  5  6  1  0
  6  7  1  0
  7  8  1  0
  8  9  1  0
  8  4  1  0
  2 10  1  0
  3 11  1  0
  3 12  1  0
  4 13  1  0
  5 14  1  0
  5 15  1  0
  7 16  1  0
  7 17  1  0
  8 18  1  0
  9 19  1  0
M  END
