
     RDKit          3D

 15 16  0  0  0  0  0  0  0  0999 V2000
    4.3207    0.3194   -0.3242 O   0  0  0  0  0  0  0  0  0  0  0  0
    3.2914    0.0974   -1.0088 C   0  0  0  0  0  0  0  0  0  0  0  0
    2.0511   -0.0580   -0.3060 C   0  0  0  0  0  0  0  0  0  0  0  0
    1.0081   -0.1970    0.2830 C   0  0  0  0  0  0  0  0  0  0  0  0
   -0.2370   -0.3800    0.9844 C   0  0  0  0  0  0  0  0  0  0  0  0
   -1.4136   -1.0399    0.3394 C   0  0  0  0  0  0  0  0  0  0  0  0
   -2.0637    0.3425    0.2690 C   0  0  0  0  0  0  0  0  0  0  0  0
   -1.0490    0.9028    1.2001 C   0  0  0  0  0  0  0  0  0  0  0  0
   -0.4742    0.1844    2.2066 O   0  0  0  0  0  0  0  0  0  0  0  0
    3.4117    0.0389   -2.0783 H   0  0  0  0  0  0  0  0  0  0  0  0
   -1.2534   -1.5170   -0.6280 H   0  0  0  0  0  0  0  0  0  0  0  0
   -1.9825   -1.6451    1.0967 H   0  0  0  0  0  0  0  0  0  0  0  0
   -1.9294    0.7322   -0.7802 H   0  0  0  0  0  0  0  0  0  0  0  0
   -3.1118    0.3563    0.5869 H   0  0  0  0  0  0  0  0  0  0  0  0
   -0.5682    1.8631    0.8740 H   0  0  0  0  0  0  0  0  0  0  0  0
  1  2  2  0
  2  3  1  0
  3  4  3  0
  4  5  1  0
  5  6  1  0
  6  7  1  0
  7  8  1  0
  8  9  1  0
  8  5  1  0
  9  5  1  0
  2 10  1  0
  6 11  1  0
  6 12  1  0
  7 13  1  0
  7 14  1  0
  8 15  1  0
M  END
