
     RDKit          3D

 18 18  0  0  0  0  0  0  0  0999 V2000
    3.1172    0.8338    0.7829 O   0  0  0  0  0  0  0  0  0  0  0  0
    2.3366    0.6271   -0.1345 C   0  0  0  0  0  0  0  0  0  0  0  0
    1.0026    0.1186    0.1989 C   0  0  0  0  0  0  0  0  0  0  0  0
    0.1558    1.2446    0.6541 C   0  0  0  0  0  0  0  0  0  0  0  0
   -1.1353    0.9987    0.8071 C   0  0  0  0  0  0  0  0  0  0  0  0
   -1.6671   -0.3379    0.5296 C   0  0  0  0  0  0  0  0  0  0  0  0
   -1.0205   -1.0621   -0.5974 C   0  0  0  0  0  0  0  0  0  0  0  0
    0.3635   -0.6457   -0.9373 C   0  0  0  0  0  0  0  0  0  0  0  0
    2.7028    0.8407   -1.1327 H   0  0  0  0  0  0  0  0  0  0  0  0
    1.1427   -0.6373    1.0266 H   0  0  0  0  0  0  0  0  0  0  0  0
    0.5904    2.2094    0.8461 H   0  0  0  0  0  0  0  0  0  0  0  0
   -1.8120    1.7914    1.1418 H   0  0  0  0  0  0  0  0  0  0  0  0
   -1.6943   -0.9892    1.4506 H   0  0  0  0  0  0  0  0  0  0  0  0
   -2.7572   -0.2213    0.2630 H   0  0  0  0  0  0  0  0  0  0  0  0
   -1.0774   -2.1674   -0.3669 H   0  0  0  0  0  0  0  0  0  0  0  0
   -1.6355   -0.9681   -1.5413 H   0  0  0  0  0  0  0  0  0  0  0  0
    0.4077   -0.0804   -1.8949 H   0  0  0  0  0  0  0  0  0  0  0  0
    0.9801   -1.5548   -1.0958 H   0  0  0  0  0  0  0  0  0  0  0  0
  1  2  2  0
  2  3  1  0
  3  4  1  0
  4  5  2  0
  5  6  1  0
  6  7  1  0
  7  8  1  0
  8  3  1  0
  2  9  1  0
  3 10  1  0
  4 11  1  0
  5 12  1  0
  6 13  1  0
  6 14  1  0
  7 15  1  0
  7 16  1  0
  8 17  1  0
  8 18  1  0
M  END
