
     RDKit          3D

 17 18  0  0  0  0  0  0  0  0999 V2000
    2.9137   -1.6168    0.1879 O   0  0  0  0  0  0  0  0  0  0  0  0
    2.3671   -0.4920    0.3589 C   0  0  0  0  0  0  0  0  0  0  0  0
    0.9880   -0.3158   -0.0522 C   0  0  0  0  0  0  0  0  0  0  0  0
    0.1637   -1.1914   -0.6084 C   0  0  0  0  0  0  0  0  0  0  0  0
   -1.0883   -0.5228   -0.8266 C   0  0  0  0  0  0  0  0  0  0  0  0
   -2.2366   -0.1908   -0.1030 C   0  0  0  0  0  0  0  0  0  0  0  0
   -1.0773    0.2601    0.5303 C   0  0  0  0  0  0  0  0  0  0  0  0
    0.1810    0.9647    0.1347 C   0  0  0  0  0  0  0  0  0  0  0  0
    0.7257    1.7720    1.0917 O   0  0  0  0  0  0  0  0  0  0  0  0
    2.9635    0.2697    0.8019 H   0  0  0  0  0  0  0  0  0  0  0  0
    0.4994   -2.2192   -0.8160 H   0  0  0  0  0  0  0  0  0  0  0  0
   -0.9629    0.1178   -1.7682 H   0  0  0  0  0  0  0  0  0  0  0  0
   -2.9677    0.5725   -0.4833 H   0  0  0  0  0  0  0  0  0  0  0  0
   -2.8423   -1.0451    0.3190 H   0  0  0  0  0  0  0  0  0  0  0  0
   -0.8107   -0.3475    1.4561 H   0  0  0  0  0  0  0  0  0  0  0  0
    0.1008    1.4038   -0.8736 H   0  0  0  0  0  0  0  0  0  0  0  0
    1.0830    2.5806    0.6506 H   0  0  0  0  0  0  0  0  0  0  0  0
  1  2  2  0
  2  3  1  0
  3  4  2  0
  4  5  1  0
  5  6  1  0
  6  7  1  0
  7  8  1  0
  8  9  1  0
  8  3  1  0
  7  5  1  0
  2 10  1  0
  4 11  1  0
  5 12  1  0
  6 13  1  0
  6 14  1  0
  7 15  1  0
  8 16  1  0
  9 17  1  0
M  END
