
     RDKit          3D

 17 18  0  0  0  0  0  0  0  0999 V2000
    3.2717    0.4991    0.9999 O   0  0  0  0  0  0  0  0  0  0  0  0
    2.5570   -0.0288    0.1580 C   0  0  0  0  0  0  0  0  0  0  0  0
    1.1449    0.4122   -0.0823 C   0  0  0  0  0  0  0  0  0  0  0  0
    0.6296   -0.3789   -1.0828 O   0  0  0  0  0  0  0  0  0  0  0  0
   -0.3773   -1.2355   -0.6509 C   0  0  0  0  0  0  0  0  0  0  0  0
   -1.4585   -0.5013    0.0994 C   0  0  0  0  0  0  0  0  0  0  0  0
   -1.5469    0.9656   -0.2297 C   0  0  0  0  0  0  0  0  0  0  0  0
   -0.8861    0.4881    1.0287 C   0  0  0  0  0  0  0  0  0  0  0  0
    0.4803    0.3500    1.1105 O   0  0  0  0  0  0  0  0  0  0  0  0
    3.0177   -0.8428   -0.4063 H   0  0  0  0  0  0  0  0  0  0  0  0
    1.2201    1.4670   -0.4390 H   0  0  0  0  0  0  0  0  0  0  0  0
   -0.8509   -1.6587   -1.5630 H   0  0  0  0  0  0  0  0  0  0  0  0
    0.0015   -2.0457   -0.0015 H   0  0  0  0  0  0  0  0  0  0  0  0
   -2.3559   -1.0805    0.3080 H   0  0  0  0  0  0  0  0  0  0  0  0
   -0.9193    1.3689   -1.0437 H   0  0  0  0  0  0  0  0  0  0  0  0
   -2.5410    1.4107   -0.1624 H   0  0  0  0  0  0  0  0  0  0  0  0
   -1.3870    0.8106    1.9572 H   0  0  0  0  0  0  0  0  0  0  0  0
  1  2  2  0
  2  3  1  0
  3  4  1  0
  4  5  1  0
  5  6  1  0
  6  7  1  0
  7  8  1  0
  8  9  1  0
  9  3  1  0
  8  6  1  0
  2 10  1  0
  3 11  1  0
  5 12  1  0
  5 13  1  0
  6 14  1  0
  7 15  1  0
  7 16  1  0
  8 17  1  0
M  END
