
     RDKit          2D

 17 19  0  0  0  0  0  0  0  0999 V2000
    3.5702    0.6724    0.0000 O   0  0  0  0  0  0  0  0  0  0  0  0
    2.1213    1.0607    0.0000 C   0  0  0  0  0  0  0  0  0  0  0  0
    0.3607    0.0000    0.0000 C   0  0  0  0  0  0  0  0  0  0  0  0
   -0.0000   -1.0607    0.0000 C   0  0  0  0  0  0  0  0  0  0  0  0
    0.3393   -0.0000    0.0000 O   0  0  0  0  0  0  0  0  0  0  0  0
    0.0000    1.0607    0.0000 C   0  0  0  0  0  0  0  0  0  0  0  0
   -1.0607    0.0000    0.0000 C   0  0  0  0  0  0  0  0  0  0  0  0
   -2.3597   -0.7500    0.0000 C   0  0  0  0  0  0  0  0  0  0  0  0
   -2.3597    0.7500    0.0000 C   0  0  0  0  0  0  0  0  0  0  0  0
    1.7331    2.5095    0.0000 H   0  0  0  0  0  0  0  0  0  0  0  0
    2.1213   -1.0607    0.0000 H   0  0  0  0  0  0  0  0  0  0  0  0
   -0.0000   -2.5607    0.0000 H   0  0  0  0  0  0  0  0  0  0  0  0
    0.0000    2.5607    0.0000 H   0  0  0  0  0  0  0  0  0  0  0  0
   -1.8467   -2.1595    0.0000 H   0  0  0  0  0  0  0  0  0  0  0  0
   -3.8369   -1.0105    0.0000 H   0  0  0  0  0  0  0  0  0  0  0  0
   -3.8369    1.0105    0.0000 H   0  0  0  0  0  0  0  0  0  0  0  0
   -1.8467    2.1595    0.0000 H   0  0  0  0  0  0  0  0  0  0  0  0
  1  2  2  0
  2  3  1  0
  3  4  1  0
  4  5  1  0
  5  6  1  0
  6  7  1  0
  7  8  1  0
  8  9  1  0
  6  3  1  0
  9  7  1  0
  7  4  1  0
  2 10  1  0
  3 11  1  0
  4 12  1  0
  6 13  1  0
  8 14  1  0
  8 15  1  0
  9 16  1  0
  9 17  1  0
M  END
