
     RDKit          3D

 15 17  0  0  0  0  0  0  0  0999 V2000
    2.6308   -0.9437   -0.9479 O   0  0  0  0  0  0  0  0  0  0  0  0
    1.8472   -0.9424   -0.0069 C   0  0  0  0  0  0  0  0  0  0  0  0
    0.5745   -0.2988   -0.1298 C   0  0  0  0  0  0  0  0  0  0  0  0
    0.3630    1.0479    0.5221 C   0  0  0  0  0  0  0  0  0  0  0  0
   -0.6655    1.0803   -0.5713 C   0  0  0  0  0  0  0  0  0  0  0  0
    0.2526    0.3208   -1.3369 O   0  0  0  0  0  0  0  0  0  0  0  0
   -1.6848    0.0174   -0.2281 C   0  0  0  0  0  0  0  0  0  0  0  0
   -1.6366   -1.2152   -0.8343 O   0  0  0  0  0  0  0  0  0  0  0  0
   -0.6832   -1.0952    0.1465 C   0  0  0  0  0  0  0  0  0  0  0  0
    2.1299   -1.4303    0.9086 H   0  0  0  0  0  0  0  0  0  0  0  0
   -0.0192    1.0422    1.5420 H   0  0  0  0  0  0  0  0  0  0  0  0
    1.2067    1.7132    0.2959 H   0  0  0  0  0  0  0  0  0  0  0  0
   -0.9921    2.0093   -0.9744 H   0  0  0  0  0  0  0  0  0  0  0  0
   -2.4942    0.2333    0.4696 H   0  0  0  0  0  0  0  0  0  0  0  0
   -0.8292   -1.5389    1.1449 H   0  0  0  0  0  0  0  0  0  0  0  0
  1  2  2  0
  2  3  1  0
  3  4  1  0
  4  5  1  0
  5  6  1  0
  5  7  1  0
  7  8  1  0
  8  9  1  0
  6  3  1  0
  9  7  1  0
  9  3  1  0
  2 10  1  0
  4 11  1  0
  4 12  1  0
  5 13  1  0
  7 14  1  0
  9 15  1  0
M  END
