
     RDKit          3D

 17 16  0  0  0  0  0  0  0  0999 V2000
   -0.6578   -0.8183    2.1341 O   0  0  0  0  0  0  0  0  0  0  0  0
   -1.0337   -0.1639    1.1771 C   0  0  0  0  0  0  0  0  0  0  0  0
   -0.1581    0.3317    0.1021 C   0  0  0  0  0  0  0  0  0  0  0  0
   -0.3969    1.7842   -0.0962 C   0  0  0  0  0  0  0  0  0  0  0  0
    0.1290    2.5936    0.6402 O   0  0  0  0  0  0  0  0  0  0  0  0
   -0.5570   -0.4423   -1.1631 C   0  0  0  0  0  0  0  0  0  0  0  0
   -0.3744   -1.8017   -0.9636 O   0  0  0  0  0  0  0  0  0  0  0  0
    1.3043    0.1390    0.3742 C   0  0  0  0  0  0  0  0  0  0  0  0
    1.6433   -1.2020    0.5431 O   0  0  0  0  0  0  0  0  0  0  0  0
   -2.0836    0.0677    1.1149 H   0  0  0  0  0  0  0  0  0  0  0  0
   -1.0272    2.1203   -0.8810 H   0  0  0  0  0  0  0  0  0  0  0  0
   -1.6500   -0.2258   -1.2962 H   0  0  0  0  0  0  0  0  0  0  0  0
    0.0097   -0.0989   -2.0295 H   0  0  0  0  0  0  0  0  0  0  0  0
   -1.1873   -2.2714   -0.6587 H   0  0  0  0  0  0  0  0  0  0  0  0
    1.8568    0.5072   -0.5161 H   0  0  0  0  0  0  0  0  0  0  0  0
    1.5906    0.7676    1.2239 H   0  0  0  0  0  0  0  0  0  0  0  0
    2.5923   -1.2869    0.2950 H   0  0  0  0  0  0  0  0  0  0  0  0
  1  2  2  0
  2  3  1  0
  3  4  1  0
  4  5  2  0
  3  6  1  0
  6  7  1  0
  3  8  1  0
  8  9  1  0
  2 10  1  0
  4 11  1  0
  6 12  1  0
  6 13  1  0
  7 14  1  0
  8 15  1  0
  8 16  1  0
  9 17  1  0
M  END
