
     RDKit          3D

 17 18  0  0  0  0  0  0  0  0999 V2000
   -0.2141    2.4176    0.9904 O   0  0  0  0  0  0  0  0  0  0  0  0
   -0.7309    1.3654    0.6637 C   0  0  0  0  0  0  0  0  0  0  0  0
   -0.2080    0.4587   -0.3758 C   0  0  0  0  0  0  0  0  0  0  0  0
   -1.2300   -0.3237   -1.1048 C   0  0  0  0  0  0  0  0  0  0  0  0
   -1.2528   -1.2616    0.1453 C   0  0  0  0  0  0  0  0  0  0  0  0
    0.2022   -0.8644    0.2606 C   0  0  0  0  0  0  0  0  0  0  0  0
    1.5008   -0.7553    0.4596 C   0  0  0  0  0  0  0  0  0  0  0  0
    1.9545    0.6017   -0.0370 C   0  0  0  0  0  0  0  0  0  0  0  0
    0.9541    0.8840   -1.0021 O   0  0  0  0  0  0  0  0  0  0  0  0
   -1.6383    1.0921    1.1839 H   0  0  0  0  0  0  0  0  0  0  0  0
   -0.9097   -0.8381   -2.0151 H   0  0  0  0  0  0  0  0  0  0  0  0
   -2.2352    0.1607   -1.1975 H   0  0  0  0  0  0  0  0  0  0  0  0
   -1.3655   -2.3161   -0.1511 H   0  0  0  0  0  0  0  0  0  0  0  0
   -1.8822   -0.8925    0.9462 H   0  0  0  0  0  0  0  0  0  0  0  0
    2.1416   -1.5071    0.9036 H   0  0  0  0  0  0  0  0  0  0  0  0
    2.9520    0.5089   -0.4769 H   0  0  0  0  0  0  0  0  0  0  0  0
    1.9616    1.2697    0.8070 H   0  0  0  0  0  0  0  0  0  0  0  0
  1  2  2  0
  2  3  1  0
  3  4  1  0
  4  5  1  0
  5  6  1  0
  6  7  2  0
  7  8  1  0
  8  9  1  0
  6  3  1  0
  9  3  1  0
  2 10  1  0
  4 11  1  0
  4 12  1  0
  5 13  1  0
  5 14  1  0
  7 15  1  0
  8 16  1  0
  8 17  1  0
M  END
