
     RDKit          3D

 19 19  0  0  0  0  0  0  0  0999 V2000
    1.6256    1.6015   -0.7861 O   0  0  0  0  0  0  0  0  0  0  0  0
    2.4042    1.1362    0.0146 C   0  0  0  0  0  0  0  0  0  0  0  0
    2.0164    0.1726    1.0654 C   0  0  0  0  0  0  0  0  0  0  0  0
    0.6622   -0.1383    1.0318 O   0  0  0  0  0  0  0  0  0  0  0  0
    0.3065   -0.7026   -0.1848 C   0  0  0  0  0  0  0  0  0  0  0  0
   -0.8304   -1.7150   -0.1629 C   0  0  0  0  0  0  0  0  0  0  0  0
   -1.0530   -0.3734   -0.7630 C   0  0  0  0  0  0  0  0  0  0  0  0
   -1.7983    0.6992    0.0039 C   0  0  0  0  0  0  0  0  0  0  0  0
   -3.0368    0.9692   -0.5592 O   0  0  0  0  0  0  0  0  0  0  0  0
    3.4344    1.4508   -0.0542 H   0  0  0  0  0  0  0  0  0  0  0  0
    2.6038   -0.7614    0.9864 H   0  0  0  0  0  0  0  0  0  0  0  0
    2.2705    0.6271    2.0437 H   0  0  0  0  0  0  0  0  0  0  0  0
    1.1055   -0.8296   -0.9421 H   0  0  0  0  0  0  0  0  0  0  0  0
   -0.7693   -2.5944   -0.8385 H   0  0  0  0  0  0  0  0  0  0  0  0
   -1.2348   -1.9419    0.8536 H   0  0  0  0  0  0  0  0  0  0  0  0
   -1.1653   -0.2923   -1.8624 H   0  0  0  0  0  0  0  0  0  0  0  0
   -1.1876    1.6324   -0.0961 H   0  0  0  0  0  0  0  0  0  0  0  0
   -1.8547    0.4793    1.0870 H   0  0  0  0  0  0  0  0  0  0  0  0
   -3.4989    0.1368   -0.8373 H   0  0  0  0  0  0  0  0  0  0  0  0
  1  2  2  0
  2  3  1  0
  3  4  1  0
  4  5  1  0
  5  6  1  0
  6  7  1  0
  7  8  1  0
  8  9  1  0
  7  5  1  0
  2 10  1  0
  3 11  1  0
  3 12  1  0
  5 13  1  0
  6 14  1  0
  6 15  1  0
  7 16  1  0
  8 17  1  0
  8 18  1  0
  9 19  1  0
M  END
