
     RDKit          3D

 15 16  0  0  0  0  0  0  0  0999 V2000
    2.9786    0.9536   -0.2110 O   0  0  0  0  0  0  0  0  0  0  0  0
    2.0540    0.2069   -0.4569 C   0  0  0  0  0  0  0  0  0  0  0  0
    0.7826    0.2296    0.2787 C   0  0  0  0  0  0  0  0  0  0  0  0
    0.0616   -1.0824    0.4315 C   0  0  0  0  0  0  0  0  0  0  0  0
   -1.3996   -0.7462    0.7298 C   0  0  0  0  0  0  0  0  0  0  0  0
   -1.5125    0.7135    0.5204 C   0  0  0  0  0  0  0  0  0  0  0  0
   -2.5006    1.3848    0.6196 O   0  0  0  0  0  0  0  0  0  0  0  0
   -0.1792    1.2406    0.1580 C   0  0  0  0  0  0  0  0  0  0  0  0
    0.7090    1.1803    1.2927 O   0  0  0  0  0  0  0  0  0  0  0  0
    2.1893   -0.5032   -1.2591 H   0  0  0  0  0  0  0  0  0  0  0  0
    0.1323   -1.6129   -0.5410 H   0  0  0  0  0  0  0  0  0  0  0  0
    0.4761   -1.7152    1.2309 H   0  0  0  0  0  0  0  0  0  0  0  0
   -2.0561   -1.3197    0.0334 H   0  0  0  0  0  0  0  0  0  0  0  0
   -1.6523   -1.0587    1.7712 H   0  0  0  0  0  0  0  0  0  0  0  0
   -0.0834    2.1289   -0.4882 H   0  0  0  0  0  0  0  0  0  0  0  0
  1  2  2  0
  2  3  1  0
  3  4  1  0
  4  5  1  0
  5  6  1  0
  6  7  2  0
  6  8  1  0
  8  9  1  0
  8  3  1  0
  9  3  1  0
  2 10  1  0
  4 11  1  0
  4 12  1  0
  5 13  1  0
  5 14  1  0
  8 15  1  0
M  END
