
     RDKit          3D

 14 15  0  0  0  0  0  0  0  0999 V2000
    1.9621    1.4860   -0.0769 O   0  0  0  0  0  0  0  0  0  0  0  0
    1.7541    0.3678   -0.5108 C   0  0  0  0  0  0  0  0  0  0  0  0
    0.4637   -0.3316   -0.4583 C   0  0  0  0  0  0  0  0  0  0  0  0
   -0.6781    0.5332    0.1195 C   0  0  0  0  0  0  0  0  0  0  0  0
   -1.4170    1.1863   -0.8254 O   0  0  0  0  0  0  0  0  0  0  0  0
   -1.2220   -0.8752    0.3605 C   0  0  0  0  0  0  0  0  0  0  0  0
   -0.7999   -1.7575    1.2444 O   0  0  0  0  0  0  0  0  0  0  0  0
    0.2474   -1.0475    0.8609 C   0  0  0  0  0  0  0  0  0  0  0  0
    2.5876   -0.1452   -0.9691 H   0  0  0  0  0  0  0  0  0  0  0  0
    0.1152   -0.8447   -1.3514 H   0  0  0  0  0  0  0  0  0  0  0  0
   -0.4036    1.0812    1.0266 H   0  0  0  0  0  0  0  0  0  0  0  0
   -1.8106    2.0196   -0.4338 H   0  0  0  0  0  0  0  0  0  0  0  0
   -1.3694   -1.3473   -0.6654 H   0  0  0  0  0  0  0  0  0  0  0  0
    0.5704   -0.3249    1.6792 H   0  0  0  0  0  0  0  0  0  0  0  0
  1  2  2  0
  2  3  1  0
  3  4  1  0
  4  5  1  0
  4  6  1  0
  6  7  1  0
  7  8  1  0
  8  3  1  0
  8  6  1  0
  2  9  1  0
  3 10  1  0
  4 11  1  0
  5 12  1  0
  6 13  1  0
  8 14  1  0
M  END
