
     RDKit          3D

 17 17  0  0  0  0  0  0  0  0999 V2000
    4.6449   -0.6104    0.1387 O   0  0  0  0  0  0  0  0  0  0  0  0
    3.7609   -0.3658   -0.7213 C   0  0  0  0  0  0  0  0  0  0  0  0
    2.4189    0.0312   -0.4009 C   0  0  0  0  0  0  0  0  0  0  0  0
    1.2925    0.3815   -0.1213 C   0  0  0  0  0  0  0  0  0  0  0  0
   -0.0628    0.8015    0.2390 C   0  0  0  0  0  0  0  0  0  0  0  0
   -0.6570   -0.1835    1.2230 C   0  0  0  0  0  0  0  0  0  0  0  0
   -1.9747   -0.0374    0.4523 C   0  0  0  0  0  0  0  0  0  0  0  0
   -2.7074   -1.1896    0.3378 O   0  0  0  0  0  0  0  0  0  0  0  0
   -1.1301    0.3291   -0.7574 C   0  0  0  0  0  0  0  0  0  0  0  0
    4.0453   -0.4652   -1.7586 H   0  0  0  0  0  0  0  0  0  0  0  0
   -0.1664    1.8437    0.5448 H   0  0  0  0  0  0  0  0  0  0  0  0
   -0.7180    0.1670    2.2563 H   0  0  0  0  0  0  0  0  0  0  0  0
   -0.2453   -1.2111    1.1382 H   0  0  0  0  0  0  0  0  0  0  0  0
   -2.5891    0.8163    0.7892 H   0  0  0  0  0  0  0  0  0  0  0  0
   -3.6686   -0.9326    0.1854 H   0  0  0  0  0  0  0  0  0  0  0  0
   -1.5033    1.1624   -1.3559 H   0  0  0  0  0  0  0  0  0  0  0  0
   -0.7398   -0.5370   -1.3032 H   0  0  0  0  0  0  0  0  0  0  0  0
  1  2  2  0
  2  3  1  0
  3  4  3  0
  4  5  1  0
  5  6  1  0
  6  7  1  0
  7  8  1  0
  7  9  1  0
  9  5  1  0
  2 10  1  0
  5 11  1  0
  6 12  1  0
  6 13  1  0
  7 14  1  0
  8 15  1  0
  9 16  1  0
  9 17  1  0
M  END
