
     RDKit          3D

 19 19  0  0  0  0  0  0  0  0999 V2000
    2.9657   -0.0469    1.1455 O   0  0  0  0  0  0  0  0  0  0  0  0
    2.6299    0.3328    0.0374 C   0  0  0  0  0  0  0  0  0  0  0  0
    1.2479    0.0141   -0.4880 C   0  0  0  0  0  0  0  0  0  0  0  0
    0.4507    1.2209   -0.5801 C   0  0  0  0  0  0  0  0  0  0  0  0
   -0.7902    1.4394   -0.2197 C   0  0  0  0  0  0  0  0  0  0  0  0
   -1.7378    0.5198    0.3852 C   0  0  0  0  0  0  0  0  0  0  0  0
   -1.7075   -0.8837   -0.1261 C   0  0  0  0  0  0  0  0  0  0  0  0
   -0.5006   -1.5287    0.4637 C   0  0  0  0  0  0  0  0  0  0  0  0
    0.7279   -1.1025    0.2746 C   0  0  0  0  0  0  0  0  0  0  0  0
    3.3348    0.8985   -0.5590 H   0  0  0  0  0  0  0  0  0  0  0  0
    1.4365   -0.3327   -1.5495 H   0  0  0  0  0  0  0  0  0  0  0  0
    1.0049    2.0660   -1.0267 H   0  0  0  0  0  0  0  0  0  0  0  0
   -1.1826    2.4456   -0.3901 H   0  0  0  0  0  0  0  0  0  0  0  0
   -1.6023    0.4635    1.4967 H   0  0  0  0  0  0  0  0  0  0  0  0
   -2.7979    0.8868    0.2459 H   0  0  0  0  0  0  0  0  0  0  0  0
   -1.6772   -0.8784   -1.2354 H   0  0  0  0  0  0  0  0  0  0  0  0
   -2.6333   -1.3891    0.2398 H   0  0  0  0  0  0  0  0  0  0  0  0
   -0.6524   -2.4086    1.0901 H   0  0  0  0  0  0  0  0  0  0  0  0
    1.4833   -1.7168    0.7958 H   0  0  0  0  0  0  0  0  0  0  0  0
  1  2  2  0
  2  3  1  0
  3  4  1  0
  4  5  2  0
  5  6  1  0
  6  7  1  0
  7  8  1  0
  8  9  2  0
  9  3  1  0
  2 10  1  0
  3 11  1  0
  4 12  1  0
  5 13  1  0
  6 14  1  0
  6 15  1  0
  7 16  1  0
  7 17  1  0
  8 18  1  0
  9 19  1  0
M  END
