
     RDKit          3D

 14 16  0  0  0  0  0  0  0  0999 V2000
    2.7149   -0.5065   -0.3318 O   0  0  0  0  0  0  0  0  0  0  0  0
    1.7798   -0.2756    0.4156 C   0  0  0  0  0  0  0  0  0  0  0  0
    0.4776    0.0308   -0.1844 C   0  0  0  0  0  0  0  0  0  0  0  0
    0.0447    1.3694   -0.5606 C   0  0  0  0  0  0  0  0  0  0  0  0
   -0.6334    0.6308    0.5725 C   0  0  0  0  0  0  0  0  0  0  0  0
   -1.4760   -0.5917    0.2390 C   0  0  0  0  0  0  0  0  0  0  0  0
   -0.9547   -1.8421    0.5452 O   0  0  0  0  0  0  0  0  0  0  0  0
   -0.3756   -1.1655   -0.5042 C   0  0  0  0  0  0  0  0  0  0  0  0
    1.9067   -0.2961    1.4890 H   0  0  0  0  0  0  0  0  0  0  0  0
    0.6298    2.2368   -0.2298 H   0  0  0  0  0  0  0  0  0  0  0  0
   -0.6353    1.4915   -1.4453 H   0  0  0  0  0  0  0  0  0  0  0  0
   -0.5629    0.9873    1.5980 H   0  0  0  0  0  0  0  0  0  0  0  0
   -2.5036   -0.4739   -0.0996 H   0  0  0  0  0  0  0  0  0  0  0  0
   -0.4120   -1.5951   -1.5038 H   0  0  0  0  0  0  0  0  0  0  0  0
  1  2  2  0
  2  3  1  0
  3  4  1  0
  4  5  1  0
  5  6  1  0
  6  7  1  0
  7  8  1  0
  5  3  1  0
  8  6  1  0
  8  3  1  0
  2  9  1  0
  4 10  1  0
  4 11  1  0
  5 12  1  0
  6 13  1  0
  8 14  1  0
M  END
