
     RDKit          3D

 17 18  0  0  0  0  0  0  0  0999 V2000
    1.8432   -0.2211    1.6306 O   0  0  0  0  0  0  0  0  0  0  0  0
    1.9271   -0.8589    0.6005 C   0  0  0  0  0  0  0  0  0  0  0  0
    0.9459   -0.5458   -0.4961 C   0  0  0  0  0  0  0  0  0  0  0  0
    0.8608    0.9309   -0.5676 C   0  0  0  0  0  0  0  0  0  0  0  0
   -0.2245    1.5991   -0.2647 C   0  0  0  0  0  0  0  0  0  0  0  0
   -1.4808    0.9644    0.1801 C   0  0  0  0  0  0  0  0  0  0  0  0
   -1.4529   -0.5178    0.2296 C   0  0  0  0  0  0  0  0  0  0  0  0
   -0.6832   -1.1953    1.1673 O   0  0  0  0  0  0  0  0  0  0  0  0
   -0.3492   -1.2354   -0.2862 C   0  0  0  0  0  0  0  0  0  0  0  0
    2.6843   -1.6050    0.5189 H   0  0  0  0  0  0  0  0  0  0  0  0
    1.4058   -0.9286   -1.4482 H   0  0  0  0  0  0  0  0  0  0  0  0
    1.7421    1.4681   -0.8858 H   0  0  0  0  0  0  0  0  0  0  0  0
   -0.2100    2.6753   -0.3413 H   0  0  0  0  0  0  0  0  0  0  0  0
   -1.7812    1.4525    1.1245 H   0  0  0  0  0  0  0  0  0  0  0  0
   -2.2642    1.2617   -0.5727 H   0  0  0  0  0  0  0  0  0  0  0  0
   -2.4731   -0.9905    0.1196 H   0  0  0  0  0  0  0  0  0  0  0  0
   -0.4900   -2.2536   -0.7084 H   0  0  0  0  0  0  0  0  0  0  0  0
  1  2  2  0
  2  3  1  0
  3  4  1  0
  4  5  2  0
  5  6  1  0
  6  7  1  0
  7  8  1  0
  8  9  1  0
  9  3  1  0
  9  7  1  0
  2 10  1  0
  3 11  1  0
  4 12  1  0
  5 13  1  0
  6 14  1  0
  6 15  1  0
  7 16  1  0
  9 17  1  0
M  END
