
     RDKit          3D

 18 18  0  0  0  0  0  0  0  0999 V2000
    2.0455   -1.5566   -1.1625 O   0  0  0  0  0  0  0  0  0  0  0  0
    2.0743   -0.5099   -0.5695 C   0  0  0  0  0  0  0  0  0  0  0  0
    0.9378   -0.0595    0.3167 C   0  0  0  0  0  0  0  0  0  0  0  0
   -0.1740   -1.0446    0.3600 C   0  0  0  0  0  0  0  0  0  0  0  0
   -1.3215   -0.7214   -0.5618 C   0  0  0  0  0  0  0  0  0  0  0  0
   -1.6273    0.7574   -0.3781 C   0  0  0  0  0  0  0  0  0  0  0  0
   -0.5322    1.4498   -0.8651 O   0  0  0  0  0  0  0  0  0  0  0  0
    0.5449    1.3310   -0.0311 C   0  0  0  0  0  0  0  0  0  0  0  0
    2.9096    0.1885   -0.6221 H   0  0  0  0  0  0  0  0  0  0  0  0
    1.3940   -0.0278    1.3505 H   0  0  0  0  0  0  0  0  0  0  0  0
    0.2030   -2.0723    0.1418 H   0  0  0  0  0  0  0  0  0  0  0  0
   -0.5951   -1.0881    1.4017 H   0  0  0  0  0  0  0  0  0  0  0  0
   -2.2041   -1.2795   -0.1870 H   0  0  0  0  0  0  0  0  0  0  0  0
   -1.1473   -0.9987   -1.6036 H   0  0  0  0  0  0  0  0  0  0  0  0
   -2.5574    0.9654   -0.9093 H   0  0  0  0  0  0  0  0  0  0  0  0
   -1.7739    0.8967    0.7234 H   0  0  0  0  0  0  0  0  0  0  0  0
    0.3949    1.9596    0.8894 H   0  0  0  0  0  0  0  0  0  0  0  0
    1.4289    1.8101   -0.5426 H   0  0  0  0  0  0  0  0  0  0  0  0
  1  2  2  0
  2  3  1  0
  3  4  1  0
  4  5  1  0
  5  6  1  0
  6  7  1  0
  7  8  1  0
  8  3  1  0
  2  9  1  0
  3 10  1  0
  4 11  1  0
  4 12  1  0
  5 13  1  0
  5 14  1  0
  6 15  1  0
  6 16  1  0
  8 17  1  0
  8 18  1  0
M  END
