
     RDKit          3D

 15 16  0  0  0  0  0  0  0  0999 V2000
    2.6981    0.2328    0.7571 O   0  0  0  0  0  0  0  0  0  0  0  0
    1.9301   -0.0631   -0.1300 C   0  0  0  0  0  0  0  0  0  0  0  0
    0.6103   -0.6048    0.2080 C   0  0  0  0  0  0  0  0  0  0  0  0
   -0.3987   -0.6782   -0.8963 C   0  0  0  0  0  0  0  0  0  0  0  0
   -1.4450   -0.6379    0.1885 C   0  0  0  0  0  0  0  0  0  0  0  0
   -0.4439    0.4098    0.5866 C   0  0  0  0  0  0  0  0  0  0  0  0
   -0.4576    1.1686    1.5779 O   0  0  0  0  0  0  0  0  0  0  0  0
   -0.4348    0.7919   -0.8540 C   0  0  0  0  0  0  0  0  0  0  0  0
   -0.4508    1.7954   -1.4997 O   0  0  0  0  0  0  0  0  0  0  0  0
    2.2068    0.0680   -1.1875 H   0  0  0  0  0  0  0  0  0  0  0  0
    0.6015   -1.4883    0.8406 H   0  0  0  0  0  0  0  0  0  0  0  0
   -0.3905   -1.2768   -1.7003 H   0  0  0  0  0  0  0  0  0  0  0  0
   -2.4372   -0.2847   -0.0919 H   0  0  0  0  0  0  0  0  0  0  0  0
   -1.3825   -1.5628    0.7942 H   0  0  0  0  0  0  0  0  0  0  0  0
   -0.2058    2.1303    1.4068 H   0  0  0  0  0  0  0  0  0  0  0  0
  1  2  2  0
  2  3  1  0
  3  4  1  0
  4  5  1  0
  5  6  1  0
  6  7  1  0
  6  8  1  0
  8  9  2  0
  6  3  1  0
  8  4  1  0
  2 10  1  0
  3 11  1  0
  4 12  1  0
  5 13  1  0
  5 14  1  0
  7 15  1  0
M  END
