
     RDKit          3D

 16 17  0  0  0  0  0  0  0  0999 V2000
    2.3620   -1.3796   -0.0639 O   0  0  0  0  0  0  0  0  0  0  0  0
    2.4848   -0.1758    0.0443 C   0  0  0  0  0  0  0  0  0  0  0  0
    1.3365    0.7622   -0.0347 C   0  0  0  0  0  0  0  0  0  0  0  0
    0.6876    0.5705   -1.3671 O   0  0  0  0  0  0  0  0  0  0  0  0
    0.0590    0.3200   -0.1463 C   0  0  0  0  0  0  0  0  0  0  0  0
   -0.4685   -1.0418    0.1648 C   0  0  0  0  0  0  0  0  0  0  0  0
   -1.8683   -0.4807    0.0955 C   0  0  0  0  0  0  0  0  0  0  0  0
   -1.2683    0.9277    0.0247 C   0  0  0  0  0  0  0  0  0  0  0  0
    3.4770    0.2177    0.2047 H   0  0  0  0  0  0  0  0  0  0  0  0
    1.6260    1.8332    0.0853 H   0  0  0  0  0  0  0  0  0  0  0  0
   -0.1980   -1.7873   -0.5827 H   0  0  0  0  0  0  0  0  0  0  0  0
   -0.1947   -1.3257    1.2101 H   0  0  0  0  0  0  0  0  0  0  0  0
   -2.4523   -0.7751   -0.7853 H   0  0  0  0  0  0  0  0  0  0  0  0
   -2.4268   -0.6258    1.0454 H   0  0  0  0  0  0  0  0  0  0  0  0
   -1.4513    1.5140    0.9625 H   0  0  0  0  0  0  0  0  0  0  0  0
   -1.7047    1.4466   -0.8572 H   0  0  0  0  0  0  0  0  0  0  0  0
  1  2  2  0
  2  3  1  0
  3  4  1  0
  4  5  1  0
  5  6  1  0
  6  7  1  0
  7  8  1  0
  5  3  1  0
  8  5  1  0
  2  9  1  0
  3 10  1  0
  6 11  1  0
  6 12  1  0
  7 13  1  0
  7 14  1  0
  8 15  1  0
  8 16  1  0
M  END
