
     RDKit          3D

 19 19  0  0  0  0  0  0  0  0999 V2000
   -2.2477    1.6574   -0.6140 O   0  0  0  0  0  0  0  0  0  0  0  0
   -1.2009    1.5553    0.0028 C   0  0  0  0  0  0  0  0  0  0  0  0
   -0.8551    0.3078    0.7371 C   0  0  0  0  0  0  0  0  0  0  0  0
   -1.5908   -0.8820    0.0980 C   0  0  0  0  0  0  0  0  0  0  0  0
   -0.4701   -0.8377   -0.9305 C   0  0  0  0  0  0  0  0  0  0  0  0
    0.4050   -0.3690    0.2413 C   0  0  0  0  0  0  0  0  0  0  0  0
    0.7617   -1.4335    1.0277 O   0  0  0  0  0  0  0  0  0  0  0  0
    1.5034    0.5623   -0.1941 C   0  0  0  0  0  0  0  0  0  0  0  0
    2.4700   -0.0914   -0.9347 O   0  0  0  0  0  0  0  0  0  0  0  0
   -0.5371    2.4099   -0.0081 H   0  0  0  0  0  0  0  0  0  0  0  0
   -0.9690    0.3654    1.8314 H   0  0  0  0  0  0  0  0  0  0  0  0
   -2.5850   -0.6215   -0.3009 H   0  0  0  0  0  0  0  0  0  0  0  0
   -1.5221   -1.7905    0.7145 H   0  0  0  0  0  0  0  0  0  0  0  0
   -0.5783   -0.0046   -1.6532 H   0  0  0  0  0  0  0  0  0  0  0  0
   -0.1775   -1.8124   -1.3439 H   0  0  0  0  0  0  0  0  0  0  0  0
    1.2811   -1.1845    1.8111 H   0  0  0  0  0  0  0  0  0  0  0  0
    1.0407    1.3763   -0.7851 H   0  0  0  0  0  0  0  0  0  0  0  0
    1.9587    0.9841    0.7274 H   0  0  0  0  0  0  0  0  0  0  0  0
    3.3132   -0.1916   -0.4267 H   0  0  0  0  0  0  0  0  0  0  0  0
  1  2  2  0
  2  3  1  0
  3  4  1  0
  4  5  1  0
  5  6  1  0
  6  7  1  0
  6  8  1  0
  8  9  1  0
  6  3  1  0
  2 10  1  0
  3 11  1  0
  4 12  1  0
  4 13  1  0
  5 14  1  0
  5 15  1  0
  7 16  1  0
  8 17  1  0
  8 18  1  0
  9 19  1  0
M  END
