
     RDKit          3D

 14 14  0  0  0  0  0  0  0  0999 V2000
    1.9846   -0.0275    1.4454 O   0  0  0  0  0  0  0  0  0  0  0  0
    1.9045   -0.3468    0.2517 C   0  0  0  0  0  0  0  0  0  0  0  0
    0.8854    0.2585   -0.6368 C   0  0  0  0  0  0  0  0  0  0  0  0
   -0.4628   -0.3653   -0.3950 C   0  0  0  0  0  0  0  0  0  0  0  0
   -1.0026   -0.2247    0.9961 C   0  0  0  0  0  0  0  0  0  0  0  0
   -1.2013    1.1365    0.6511 O   0  0  0  0  0  0  0  0  0  0  0  0
   -1.5200    0.6615   -0.6343 C   0  0  0  0  0  0  0  0  0  0  0  0
   -2.3370    1.0098   -1.5076 O   0  0  0  0  0  0  0  0  0  0  0  0
    2.6205   -1.0861   -0.0854 H   0  0  0  0  0  0  0  0  0  0  0  0
    1.2057    0.0987   -1.6821 H   0  0  0  0  0  0  0  0  0  0  0  0
    0.8388    1.3534   -0.4572 H   0  0  0  0  0  0  0  0  0  0  0  0
   -0.6447   -1.3382   -0.8428 H   0  0  0  0  0  0  0  0  0  0  0  0
   -1.9775   -0.7266    1.0735 H   0  0  0  0  0  0  0  0  0  0  0  0
   -0.2936   -0.4031    1.8236 H   0  0  0  0  0  0  0  0  0  0  0  0
  1  2  2  0
  2  3  1  0
  3  4  1  0
  4  5  1  0
  5  6  1  0
  6  7  1  0
  7  8  2  0
  7  4  1  0
  2  9  1  0
  3 10  1  0
  3 11  1  0
  4 12  1  0
  5 13  1  0
  5 14  1  0
M  END
