
     RDKit          3D

 19 19  0  0  0  0  0  0  0  0999 V2000
    2.9638    1.0198    0.2478 O   0  0  0  0  0  0  0  0  0  0  0  0
    2.3574    0.0732    0.6777 C   0  0  0  0  0  0  0  0  0  0  0  0
    1.3543   -0.5936   -0.2090 C   0  0  0  0  0  0  0  0  0  0  0  0
    1.3027    0.0426   -1.4471 O   0  0  0  0  0  0  0  0  0  0  0  0
   -0.0298   -0.5265    0.4091 C   0  0  0  0  0  0  0  0  0  0  0  0
   -0.4744    0.8964    0.6199 C   0  0  0  0  0  0  0  0  0  0  0  0
   -1.9145    0.9483    0.2684 C   0  0  0  0  0  0  0  0  0  0  0  0
   -2.2084   -0.1271   -0.4280 C   0  0  0  0  0  0  0  0  0  0  0  0
   -1.0272   -1.0184   -0.6274 C   0  0  0  0  0  0  0  0  0  0  0  0
    2.5617   -0.2520    1.6778 H   0  0  0  0  0  0  0  0  0  0  0  0
    1.6898   -1.6288   -0.3496 H   0  0  0  0  0  0  0  0  0  0  0  0
    1.5836    0.9947   -1.4037 H   0  0  0  0  0  0  0  0  0  0  0  0
   -0.0942   -1.0576    1.3588 H   0  0  0  0  0  0  0  0  0  0  0  0
   -0.3490    1.2295    1.6765 H   0  0  0  0  0  0  0  0  0  0  0  0
    0.0947    1.5724   -0.0693 H   0  0  0  0  0  0  0  0  0  0  0  0
   -2.6347    1.7337    0.5300 H   0  0  0  0  0  0  0  0  0  0  0  0
   -3.2019   -0.3521   -0.8209 H   0  0  0  0  0  0  0  0  0  0  0  0
   -1.3509   -2.0455   -0.4616 H   0  0  0  0  0  0  0  0  0  0  0  0
   -0.6230   -0.9090   -1.6493 H   0  0  0  0  0  0  0  0  0  0  0  0
  1  2  2  0
  2  3  1  0
  3  4  1  0
  3  5  1  0
  5  6  1  0
  6  7  1  0
  7  8  2  0
  8  9  1  0
  9  5  1  0
  2 10  1  0
  3 11  1  0
  4 12  1  0
  5 13  1  0
  6 14  1  0
  6 15  1  0
  7 16  1  0
  8 17  1  0
  9 18  1  0
  9 19  1  0
M  END
