
     RDKit          3D

 21 21  0  0  0  0  0  0  0  0999 V2000
   -2.5966    1.4722    1.2850 O   0  0  0  0  0  0  0  0  0  0  0  0
   -1.5095    1.3309    0.7539 C   0  0  0  0  0  0  0  0  0  0  0  0
   -1.1871    0.1085   -0.0193 C   0  0  0  0  0  0  0  0  0  0  0  0
    0.2125    0.1090   -0.6037 C   0  0  0  0  0  0  0  0  0  0  0  0
    1.1680    0.2154    0.5724 C   0  0  0  0  0  0  0  0  0  0  0  0
    2.6094    0.2247    0.1162 C   0  0  0  0  0  0  0  0  0  0  0  0
    2.8709   -0.9792   -0.5794 O   0  0  0  0  0  0  0  0  0  0  0  0
   -2.3188   -0.4590   -0.7830 C   0  0  0  0  0  0  0  0  0  0  0  0
   -1.7973   -1.1797    0.4150 C   0  0  0  0  0  0  0  0  0  0  0  0
   -0.7682    2.1069    0.8465 H   0  0  0  0  0  0  0  0  0  0  0  0
    0.3044    0.9950   -1.2745 H   0  0  0  0  0  0  0  0  0  0  0  0
    0.3878   -0.8138   -1.1881 H   0  0  0  0  0  0  0  0  0  0  0  0
    1.0068    1.1580    1.1321 H   0  0  0  0  0  0  0  0  0  0  0  0
    1.0220   -0.6750    1.2018 H   0  0  0  0  0  0  0  0  0  0  0  0
    3.2729    0.1896    1.0051 H   0  0  0  0  0  0  0  0  0  0  0  0
    2.8567    1.0856   -0.5251 H   0  0  0  0  0  0  0  0  0  0  0  0
    3.4393   -0.7956   -1.3543 H   0  0  0  0  0  0  0  0  0  0  0  0
   -2.0891   -0.8648   -1.7966 H   0  0  0  0  0  0  0  0  0  0  0  0
   -3.3065    0.0433   -0.7505 H   0  0  0  0  0  0  0  0  0  0  0  0
   -1.2320   -2.1347    0.2759 H   0  0  0  0  0  0  0  0  0  0  0  0
   -2.3455   -1.1372    1.3680 H   0  0  0  0  0  0  0  0  0  0  0  0
  1  2  2  0
  2  3  1  0
  3  4  1  0
  4  5  1  0
  5  6  1  0
  6  7  1  0
  3  8  1  0
  8  9  1  0
  9  3  1  0
  2 10  1  0
  4 11  1  0
  4 12  1  0
  5 13  1  0
  5 14  1  0
  6 15  1  0
  6 16  1  0
  7 17  1  0
  8 18  1  0
  8 19  1  0
  9 20  1  0
  9 21  1  0
M  END
