
     RDKit          3D

 10  9  0  0  0  0  0  0  0  0999 V2000
   -2.3662   -0.7744   -0.5233 O   0  0  0  0  0  0  0  0  0  0  0  0
   -1.1557   -0.6748   -0.6275 C   0  0  0  0  0  0  0  0  0  0  0  0
   -0.5311    0.6433   -0.4942 C   0  0  0  0  0  0  0  0  0  0  0  0
    0.8447    0.6726   -0.6251 O   0  0  0  0  0  0  0  0  0  0  0  0
    1.6980   -0.0336    0.2106 C   0  0  0  0  0  0  0  0  0  0  0  0
    1.1352   -0.7074    1.1019 O   0  0  0  0  0  0  0  0  0  0  0  0
   -0.6303   -1.6028   -0.8160 H   0  0  0  0  0  0  0  0  0  0  0  0
   -0.9566    1.3014   -1.3067 H   0  0  0  0  0  0  0  0  0  0  0  0
   -0.8081    1.1695    0.4537 H   0  0  0  0  0  0  0  0  0  0  0  0
    2.7700    0.0063    0.0870 H   0  0  0  0  0  0  0  0  0  0  0  0
  1  2  2  0
  2  3  1  0
  3  4  1  0
  4  5  1  0
  5  6  2  0
  2  7  1  0
  3  8  1  0
  3  9  1  0
  5 10  1  0
M  END
