
     RDKit          3D

 17 18  0  0  0  0  0  0  0  0999 V2000
   -0.0243    2.5752   -0.8426 O   0  0  0  0  0  0  0  0  0  0  0  0
    0.2285    1.8376    0.0895 C   0  0  0  0  0  0  0  0  0  0  0  0
    0.4829    0.4208   -0.1594 C   0  0  0  0  0  0  0  0  0  0  0  0
    1.8006   -0.2023   -0.1118 C   0  0  0  0  0  0  0  0  0  0  0  0
    0.8268   -0.4586    1.0073 C   0  0  0  0  0  0  0  0  0  0  0  0
    0.0290   -1.5739    0.9620 O   0  0  0  0  0  0  0  0  0  0  0  0
   -1.1792   -1.1228    0.3916 C   0  0  0  0  0  0  0  0  0  0  0  0
   -0.6168   -0.4053   -0.8399 C   0  0  0  0  0  0  0  0  0  0  0  0
   -1.5298    0.4415   -1.4152 O   0  0  0  0  0  0  0  0  0  0  0  0
    0.2612    2.2374    1.0816 H   0  0  0  0  0  0  0  0  0  0  0  0
    2.0509   -1.0606   -0.7758 H   0  0  0  0  0  0  0  0  0  0  0  0
    2.6625    0.4730    0.0944 H   0  0  0  0  0  0  0  0  0  0  0  0
    1.1181   -0.0259    1.9791 H   0  0  0  0  0  0  0  0  0  0  0  0
   -1.6438   -0.3252    1.0104 H   0  0  0  0  0  0  0  0  0  0  0  0
   -1.8450   -1.9433    0.1323 H   0  0  0  0  0  0  0  0  0  0  0  0
   -0.1841   -1.1465   -1.5416 H   0  0  0  0  0  0  0  0  0  0  0  0
   -2.4376    0.2790   -1.0621 H   0  0  0  0  0  0  0  0  0  0  0  0
  1  2  2  0
  2  3  1  0
  3  4  1  0
  4  5  1  0
  5  6  1  0
  6  7  1  0
  7  8  1  0
  8  9  1  0
  5  3  1  0
  8  3  1  0
  2 10  1  0
  4 11  1  0
  4 12  1  0
  5 13  1  0
  7 14  1  0
  7 15  1  0
  8 16  1  0
  9 17  1  0
M  END
