
     RDKit          3D

 17 16  0  0  0  0  0  0  0  0999 V2000
   -3.4290    1.1200   -1.0838 O   0  0  0  0  0  0  0  0  0  0  0  0
   -3.4462    0.2045   -0.2761 C   0  0  0  0  0  0  0  0  0  0  0  0
   -2.1384   -0.2991    0.2373 C   0  0  0  0  0  0  0  0  0  0  0  0
   -1.0705    0.3991   -0.3231 O   0  0  0  0  0  0  0  0  0  0  0  0
    0.0901   -0.1297    0.2048 C   0  0  0  0  0  0  0  0  0  0  0  0
    1.3146    0.5140   -0.2992 C   0  0  0  0  0  0  0  0  0  0  0  0
    1.3538    1.4266   -1.1030 O   0  0  0  0  0  0  0  0  0  0  0  0
    2.6245    0.0171    0.2083 C   0  0  0  0  0  0  0  0  0  0  0  0
    3.7017    0.6948   -0.3336 O   0  0  0  0  0  0  0  0  0  0  0  0
   -4.3911   -0.2151    0.0449 H   0  0  0  0  0  0  0  0  0  0  0  0
   -2.1007   -1.3858    0.0228 H   0  0  0  0  0  0  0  0  0  0  0  0
   -2.1164   -0.2112    1.3557 H   0  0  0  0  0  0  0  0  0  0  0  0
    0.1294   -1.2041   -0.1427 H   0  0  0  0  0  0  0  0  0  0  0  0
    0.0310   -0.0925    1.3182 H   0  0  0  0  0  0  0  0  0  0  0  0
    2.6968    0.0952    1.3218 H   0  0  0  0  0  0  0  0  0  0  0  0
    2.6641   -1.0826   -0.0259 H   0  0  0  0  0  0  0  0  0  0  0  0
    4.0865    0.1489   -1.0412 H   0  0  0  0  0  0  0  0  0  0  0  0
  1  2  2  0
  2  3  1  0
  3  4  1  0
  4  5  1  0
  5  6  1  0
  6  7  2  0
  6  8  1  0
  8  9  1  0
  2 10  1  0
  3 11  1  0
  3 12  1  0
  5 13  1  0
  5 14  1  0
  8 15  1  0
  8 16  1  0
  9 17  1  0
M  END
