
     RDKit          3D

 19 21  0  0  0  0  0  0  0  0999 V2000
    2.7720   -0.2542   -0.3832 O   0  0  0  0  0  0  0  0  0  0  0  0
    2.2968    0.7331    0.1463 C   0  0  0  0  0  0  0  0  0  0  0  0
    0.8322    0.7257    0.3993 C   0  0  0  0  0  0  0  0  0  0  0  0
    0.4997   -0.5742    1.0856 C   0  0  0  0  0  0  0  0  0  0  0  0
   -0.7321   -1.0876    0.3333 C   0  0  0  0  0  0  0  0  0  0  0  0
   -1.8417   -0.0862    0.3650 C   0  0  0  0  0  0  0  0  0  0  0  0
   -1.3006    0.4904   -0.9341 C   0  0  0  0  0  0  0  0  0  0  0  0
    0.1604    0.6661   -0.9718 C   0  0  0  0  0  0  0  0  0  0  0  0
   -0.4122   -0.6687   -1.0604 C   0  0  0  0  0  0  0  0  0  0  0  0
    2.8699    1.5865    0.4319 H   0  0  0  0  0  0  0  0  0  0  0  0
    0.4942    1.6005    0.9859 H   0  0  0  0  0  0  0  0  0  0  0  0
    1.2954   -1.3463    0.8852 H   0  0  0  0  0  0  0  0  0  0  0  0
    0.2951   -0.4679    2.1578 H   0  0  0  0  0  0  0  0  0  0  0  0
   -0.9860   -2.1280    0.5134 H   0  0  0  0  0  0  0  0  0  0  0  0
   -1.7321    0.7072    1.1578 H   0  0  0  0  0  0  0  0  0  0  0  0
   -2.8656   -0.4508    0.3353 H   0  0  0  0  0  0  0  0  0  0  0  0
   -1.9825    0.8051   -1.7176 H   0  0  0  0  0  0  0  0  0  0  0  0
    0.6945    1.0923   -1.8342 H   0  0  0  0  0  0  0  0  0  0  0  0
   -0.3572   -1.3431   -1.8954 H   0  0  0  0  0  0  0  0  0  0  0  0
  1  2  2  0
  2  3  1  0
  3  4  1  0
  4  5  1  0
  5  6  1  0
  6  7  1  0
  7  8  1  0
  8  9  1  0
  8  3  1  0
  9  5  1  0
  9  7  1  0
  2 10  1  0
  3 11  1  0
  4 12  1  0
  4 13  1  0
  5 14  1  0
  6 15  1  0
  6 16  1  0
  7 17  1  0
  8 18  1  0
  9 19  1  0
M  END
