
     RDKit          3D

 15 15  0  0  0  0  0  0  0  0999 V2000
   -0.3328    2.3598   -1.6005 O   0  0  0  0  0  0  0  0  0  0  0  0
   -0.5048    1.6840   -0.6073 C   0  0  0  0  0  0  0  0  0  0  0  0
    0.0594    0.3288   -0.5505 C   0  0  0  0  0  0  0  0  0  0  0  0
   -0.9837   -0.7186   -0.2169 C   0  0  0  0  0  0  0  0  0  0  0  0
   -1.7257   -0.3786    0.9146 O   0  0  0  0  0  0  0  0  0  0  0  0
    1.3565    0.1803    0.1866 C   0  0  0  0  0  0  0  0  0  0  0  0
    1.5822   -0.8361   -0.8690 C   0  0  0  0  0  0  0  0  0  0  0  0
    2.2003   -1.9084   -1.0130 O   0  0  0  0  0  0  0  0  0  0  0  0
    0.7753   -0.0721   -1.7021 O   0  0  0  0  0  0  0  0  0  0  0  0
   -1.0609    2.0482    0.2386 H   0  0  0  0  0  0  0  0  0  0  0  0
   -1.6443   -0.7913   -1.1133 H   0  0  0  0  0  0  0  0  0  0  0  0
   -0.5122   -1.7086   -0.0353 H   0  0  0  0  0  0  0  0  0  0  0  0
   -2.4881   -1.0249    0.9378 H   0  0  0  0  0  0  0  0  0  0  0  0
    1.2784   -0.2137    1.2174 H   0  0  0  0  0  0  0  0  0  0  0  0
    2.0002    1.0512    0.0321 H   0  0  0  0  0  0  0  0  0  0  0  0
  1  2  2  0
  2  3  1  0
  3  4  1  0
  4  5  1  0
  3  6  1  0
  6  7  1  0
  7  8  2  0
  7  9  1  0
  9  3  1  0
  2 10  1  0
  4 11  1  0
  4 12  1  0
  5 13  1  0
  6 14  1  0
  6 15  1  0
M  END
