
     RDKit          3D

 15 17  0  0  0  0  0  0  0  0999 V2000
   -0.0122    2.2346    1.1820 O   0  0  0  0  0  0  0  0  0  0  0  0
   -0.1573    1.8474    0.0303 C   0  0  0  0  0  0  0  0  0  0  0  0
    0.0657    0.4328   -0.3055 C   0  0  0  0  0  0  0  0  0  0  0  0
    1.2712   -0.3056    0.0969 C   0  0  0  0  0  0  0  0  0  0  0  0
    1.7666   -1.3049   -0.7633 O   0  0  0  0  0  0  0  0  0  0  0  0
    0.0669   -0.5376    0.8964 C   0  0  0  0  0  0  0  0  0  0  0  0
   -1.2087   -1.0721    0.3436 C   0  0  0  0  0  0  0  0  0  0  0  0
   -1.1321   -1.6952   -0.8744 O   0  0  0  0  0  0  0  0  0  0  0  0
   -1.0201   -0.3335   -0.9795 C   0  0  0  0  0  0  0  0  0  0  0  0
   -0.4499    2.5190   -0.7704 H   0  0  0  0  0  0  0  0  0  0  0  0
    2.0722    0.2883    0.5615 H   0  0  0  0  0  0  0  0  0  0  0  0
    2.7457   -1.3680   -0.7401 H   0  0  0  0  0  0  0  0  0  0  0  0
    0.0168   -0.1085    1.9037 H   0  0  0  0  0  0  0  0  0  0  0  0
   -2.1707   -0.8335    0.8206 H   0  0  0  0  0  0  0  0  0  0  0  0
   -1.8542    0.2366   -1.4018 H   0  0  0  0  0  0  0  0  0  0  0  0
  1  2  2  0
  2  3  1  0
  3  4  1  0
  4  5  1  0
  4  6  1  0
  6  7  1  0
  7  8  1  0
  8  9  1  0
  6  3  1  0
  9  7  1  0
  9  3  1  0
  2 10  1  0
  4 11  1  0
  5 12  1  0
  6 13  1  0
  7 14  1  0
  9 15  1  0
M  END
