
     RDKit          3D

 12 11  0  0  0  0  0  0  0  0999 V2000
    1.0136    1.9180    0.4255 O   0  0  0  0  0  0  0  0  0  0  0  0
    1.0106    1.0516   -0.4310 C   0  0  0  0  0  0  0  0  0  0  0  0
    0.1132   -0.1279   -0.1851 C   0  0  0  0  0  0  0  0  0  0  0  0
    0.1987   -1.0338   -1.2207 O   0  0  0  0  0  0  0  0  0  0  0  0
   -1.2752    0.3468   -0.0564 C   0  0  0  0  0  0  0  0  0  0  0  0
   -2.1294   -0.0601   -0.7965 O   0  0  0  0  0  0  0  0  0  0  0  0
    0.4607   -0.7779    1.1208 C   0  0  0  0  0  0  0  0  0  0  0  0
    0.7647   -1.9323    1.1979 O   0  0  0  0  0  0  0  0  0  0  0  0
    1.6105    1.1124   -1.3188 H   0  0  0  0  0  0  0  0  0  0  0  0
   -0.6862   -1.4229   -1.4363 H   0  0  0  0  0  0  0  0  0  0  0  0
   -1.4997    1.0582    0.7084 H   0  0  0  0  0  0  0  0  0  0  0  0
    0.4185   -0.1323    1.9924 H   0  0  0  0  0  0  0  0  0  0  0  0
  1  2  2  0
  2  3  1  0
  3  4  1  0
  3  5  1  0
  5  6  2  0
  3  7  1  0
  7  8  2  0
  2  9  1  0
  4 10  1  0
  5 11  1  0
  7 12  1  0
M  END
