
     RDKit          3D

 17 17  0  0  0  0  0  0  0  0999 V2000
    1.1568    2.3560   -0.8470 O   0  0  0  0  0  0  0  0  0  0  0  0
    1.4955    1.1969   -0.6761 C   0  0  0  0  0  0  0  0  0  0  0  0
    0.8512    0.4031    0.3945 C   0  0  0  0  0  0  0  0  0  0  0  0
    1.3964   -0.9746    0.4037 C   0  0  0  0  0  0  0  0  0  0  0  0
    2.5739   -1.1100    0.6673 O   0  0  0  0  0  0  0  0  0  0  0  0
   -0.6408    0.4463    0.2261 C   0  0  0  0  0  0  0  0  0  0  0  0
   -1.2001   -0.0796   -1.0383 C   0  0  0  0  0  0  0  0  0  0  0  0
   -1.8713   -1.1319   -0.3774 O   0  0  0  0  0  0  0  0  0  0  0  0
   -1.4034   -0.6741    0.8512 C   0  0  0  0  0  0  0  0  0  0  0  0
    2.2495    0.7816   -1.3033 H   0  0  0  0  0  0  0  0  0  0  0  0
    1.1152    0.8637    1.3671 H   0  0  0  0  0  0  0  0  0  0  0  0
    0.8184   -1.8605    0.1926 H   0  0  0  0  0  0  0  0  0  0  0  0
   -1.0340    1.4247    0.5449 H   0  0  0  0  0  0  0  0  0  0  0  0
   -1.9808    0.5784   -1.4949 H   0  0  0  0  0  0  0  0  0  0  0  0
   -0.4901   -0.5227   -1.7722 H   0  0  0  0  0  0  0  0  0  0  0  0
   -0.7425   -1.3466    1.4010 H   0  0  0  0  0  0  0  0  0  0  0  0
   -2.2937   -0.3507    1.4607 H   0  0  0  0  0  0  0  0  0  0  0  0
  1  2  2  0
  2  3  1  0
  3  4  1  0
  4  5  2  0
  3  6  1  0
  6  7  1  0
  7  8  1  0
  8  9  1  0
  9  6  1  0
  2 10  1  0
  3 11  1  0
  4 12  1  0
  6 13  1  0
  7 14  1  0
  7 15  1  0
  9 16  1  0
  9 17  1  0
M  END
