
     RDKit          3D

 19 18  0  0  0  0  0  0  0  0999 V2000
   -1.3502   -1.1046    3.2024 O   0  0  0  0  0  0  0  0  0  0  0  0
   -1.8020   -1.9337    2.4506 C   0  0  0  0  0  0  0  0  0  0  0  0
   -1.4979   -1.9797    0.9917 C   0  0  0  0  0  0  0  0  0  0  0  0
   -0.5899   -0.7963    0.7080 C   0  0  0  0  0  0  0  0  0  0  0  0
   -0.2732   -0.8094   -0.7508 C   0  0  0  0  0  0  0  0  0  0  0  0
    0.6154    0.3784   -1.0480 C   0  0  0  0  0  0  0  0  0  0  0  0
    1.3372    1.3768   -1.2994 C   0  0  0  0  0  0  0  0  0  0  0  0
    2.1583    2.4715   -1.5721 C   0  0  0  0  0  0  0  0  0  0  0  0
    1.3959    3.6518   -1.3419 O   0  0  0  0  0  0  0  0  0  0  0  0
   -2.4742   -2.6962    2.8649 H   0  0  0  0  0  0  0  0  0  0  0  0
   -1.0445   -2.9297    0.6781 H   0  0  0  0  0  0  0  0  0  0  0  0
   -2.4797   -1.8168    0.4415 H   0  0  0  0  0  0  0  0  0  0  0  0
    0.3412   -0.9522    1.3386 H   0  0  0  0  0  0  0  0  0  0  0  0
   -1.0114    0.1532    1.0627 H   0  0  0  0  0  0  0  0  0  0  0  0
   -1.1665   -0.7486   -1.3970 H   0  0  0  0  0  0  0  0  0  0  0  0
    0.2727   -1.7304   -1.0117 H   0  0  0  0  0  0  0  0  0  0  0  0
    2.4838    2.5706   -2.6415 H   0  0  0  0  0  0  0  0  0  0  0  0
    3.0945    2.5225   -0.9592 H   0  0  0  0  0  0  0  0  0  0  0  0
    1.9906    4.3729   -1.7168 H   0  0  0  0  0  0  0  0  0  0  0  0
  1  2  2  0
  2  3  1  0
  3  4  1  0
  4  5  1  0
  5  6  1  0
  6  7  3  0
  7  8  1  0
  8  9  1  0
  2 10  1  0
  3 11  1  0
  3 12  1  0
  4 13  1  0
  4 14  1  0
  5 15  1  0
  5 16  1  0
  8 17  1  0
  8 18  1  0
  9 19  1  0
M  END
