
     RDKit          3D

 19 19  0  0  0  0  0  0  0  0999 V2000
   -1.8898   -0.3071    2.0210 O   0  0  0  0  0  0  0  0  0  0  0  0
   -1.8495   -0.3705    0.8193 C   0  0  0  0  0  0  0  0  0  0  0  0
   -0.7098    0.0871   -0.0192 C   0  0  0  0  0  0  0  0  0  0  0  0
   -1.2040    0.9027   -1.1552 C   0  0  0  0  0  0  0  0  0  0  0  0
   -1.4173    0.3588   -2.2161 O   0  0  0  0  0  0  0  0  0  0  0  0
    0.2642    0.9320    0.7588 C   0  0  0  0  0  0  0  0  0  0  0  0
    1.5877    0.5562    0.1006 C   0  0  0  0  0  0  0  0  0  0  0  0
    1.4506   -0.9621    0.1062 C   0  0  0  0  0  0  0  0  0  0  0  0
    0.0827   -1.0979   -0.5576 C   0  0  0  0  0  0  0  0  0  0  0  0
   -2.7023   -0.7913    0.2918 H   0  0  0  0  0  0  0  0  0  0  0  0
   -1.3734    1.9612   -1.0487 H   0  0  0  0  0  0  0  0  0  0  0  0
    0.0895    2.0192    0.6471 H   0  0  0  0  0  0  0  0  0  0  0  0
    0.2872    0.6823    1.8423 H   0  0  0  0  0  0  0  0  0  0  0  0
    2.4556    0.9137    0.6441 H   0  0  0  0  0  0  0  0  0  0  0  0
    1.5265    0.9222   -0.9563 H   0  0  0  0  0  0  0  0  0  0  0  0
    1.3205   -1.3095    1.1445 H   0  0  0  0  0  0  0  0  0  0  0  0
    2.2445   -1.4639   -0.4528 H   0  0  0  0  0  0  0  0  0  0  0  0
   -0.3743   -2.0561   -0.3007 H   0  0  0  0  0  0  0  0  0  0  0  0
    0.2114   -0.9770   -1.6695 H   0  0  0  0  0  0  0  0  0  0  0  0
  1  2  2  0
  2  3  1  0
  3  4  1  0
  4  5  2  0
  3  6  1  0
  6  7  1  0
  7  8  1  0
  8  9  1  0
  9  3  1  0
  2 10  1  0
  4 11  1  0
  6 12  1  0
  6 13  1  0
  7 14  1  0
  7 15  1  0
  8 16  1  0
  8 17  1  0
  9 18  1  0
  9 19  1  0
M  END
