
     RDKit          3D

 15 16  0  0  0  0  0  0  0  0999 V2000
    3.2407    0.6727   -0.6433 O   0  0  0  0  0  0  0  0  0  0  0  0
    2.1354    0.1977   -0.4938 C   0  0  0  0  0  0  0  0  0  0  0  0
    1.0931    0.7109    0.4402 C   0  0  0  0  0  0  0  0  0  0  0  0
   -0.2324    0.6976   -0.0059 C   0  0  0  0  0  0  0  0  0  0  0  0
   -1.2139   -0.3620   -0.4085 C   0  0  0  0  0  0  0  0  0  0  0  0
   -1.8492   -0.5532    0.9332 C   0  0  0  0  0  0  0  0  0  0  0  0
   -2.9949   -0.9984    1.1540 O   0  0  0  0  0  0  0  0  0  0  0  0
   -0.9060   -0.1353    1.8708 O   0  0  0  0  0  0  0  0  0  0  0  0
    0.3091   -0.1917    1.1896 C   0  0  0  0  0  0  0  0  0  0  0  0
    1.8777   -0.6688   -1.0828 H   0  0  0  0  0  0  0  0  0  0  0  0
    1.4859    1.6057    0.9860 H   0  0  0  0  0  0  0  0  0  0  0  0
   -0.8575    1.5935    0.3108 H   0  0  0  0  0  0  0  0  0  0  0  0
   -1.9277   -0.0226   -1.1615 H   0  0  0  0  0  0  0  0  0  0  0  0
   -0.6565   -1.2642   -0.7256 H   0  0  0  0  0  0  0  0  0  0  0  0
    0.4960   -1.2819    0.9345 H   0  0  0  0  0  0  0  0  0  0  0  0
  1  2  2  0
  2  3  1  0
  3  4  1  0
  4  5  1  0
  5  6  1  0
  6  7  2  0
  6  8  1  0
  8  9  1  0
  9  3  1  0
  9  4  1  0
  2 10  1  0
  3 11  1  0
  4 12  1  0
  5 13  1  0
  5 14  1  0
  9 15  1  0
M  END
