
     RDKit          3D

 15 16  0  0  0  0  0  0  0  0999 V2000
    2.5276    0.1062   -1.2086 O   0  0  0  0  0  0  0  0  0  0  0  0
    2.3903    0.5203   -0.0326 C   0  0  0  0  0  0  0  0  0  0  0  0
    1.2050    0.3797    0.7742 C   0  0  0  0  0  0  0  0  0  0  0  0
    1.2597    0.8766    1.9545 O   0  0  0  0  0  0  0  0  0  0  0  0
   -0.0568   -0.2617    0.4110 C   0  0  0  0  0  0  0  0  0  0  0  0
   -0.2080   -1.0677   -0.8321 C   0  0  0  0  0  0  0  0  0  0  0  0
   -0.9723    0.2105   -0.6248 C   0  0  0  0  0  0  0  0  0  0  0  0
   -2.0605    0.1531    0.4047 C   0  0  0  0  0  0  0  0  0  0  0  0
   -1.1038   -0.2698    1.3477 O   0  0  0  0  0  0  0  0  0  0  0  0
    3.2594    1.0201    0.3734 H   0  0  0  0  0  0  0  0  0  0  0  0
    0.6454   -1.1453   -1.4959 H   0  0  0  0  0  0  0  0  0  0  0  0
   -0.7659   -2.0350   -0.6630 H   0  0  0  0  0  0  0  0  0  0  0  0
   -0.8202    1.0811   -1.2582 H   0  0  0  0  0  0  0  0  0  0  0  0
   -2.7586   -0.6779    0.1813 H   0  0  0  0  0  0  0  0  0  0  0  0
   -2.5413    1.1096    0.6683 H   0  0  0  0  0  0  0  0  0  0  0  0
  1  2  2  0
  2  3  1  0
  3  4  2  0
  3  5  1  0
  5  6  1  0
  6  7  1  0
  7  8  1  0
  8  9  1  0
  7  5  1  0
  9  5  1  0
  2 10  1  0
  6 11  1  0
  6 12  1  0
  7 13  1  0
  8 14  1  0
  8 15  1  0
M  END
