
     RDKit          3D

 17 17  0  0  0  0  0  0  0  0999 V2000
   -0.4344    1.5870   -1.7543 O   0  0  0  0  0  0  0  0  0  0  0  0
    0.3898    1.4302   -0.8732 C   0  0  0  0  0  0  0  0  0  0  0  0
    0.5248    0.2125   -0.0802 C   0  0  0  0  0  0  0  0  0  0  0  0
    1.8885    0.0711    0.5017 C   0  0  0  0  0  0  0  0  0  0  0  0
    2.6955   -0.7568    0.0748 O   0  0  0  0  0  0  0  0  0  0  0  0
    0.0930   -1.0733   -0.7151 C   0  0  0  0  0  0  0  0  0  0  0  0
   -1.1892   -1.0186    0.0722 C   0  0  0  0  0  0  0  0  0  0  0  0
   -0.6012    0.0904    0.9218 C   0  0  0  0  0  0  0  0  0  0  0  0
   -1.4250    1.2129    0.9984 O   0  0  0  0  0  0  0  0  0  0  0  0
    1.0557    2.2614   -0.6828 H   0  0  0  0  0  0  0  0  0  0  0  0
    2.1312    0.7416    1.3262 H   0  0  0  0  0  0  0  0  0  0  0  0
    0.6903   -1.9552   -0.3750 H   0  0  0  0  0  0  0  0  0  0  0  0
   -0.0493   -1.0755   -1.7990 H   0  0  0  0  0  0  0  0  0  0  0  0
   -1.3948   -1.9056    0.7094 H   0  0  0  0  0  0  0  0  0  0  0  0
   -2.0292   -0.6687   -0.5506 H   0  0  0  0  0  0  0  0  0  0  0  0
   -0.1836   -0.2486    1.8952 H   0  0  0  0  0  0  0  0  0  0  0  0
   -2.1621    1.0954    0.3305 H   0  0  0  0  0  0  0  0  0  0  0  0
  1  2  2  0
  2  3  1  0
  3  4  1  0
  4  5  2  0
  3  6  1  0
  6  7  1  0
  7  8  1  0
  8  9  1  0
  8  3  1  0
  2 10  1  0
  4 11  1  0
  6 12  1  0
  6 13  1  0
  7 14  1  0
  7 15  1  0
  8 16  1  0
  9 17  1  0
M  END
