
     RDKit          3D

 21 22  0  0  0  0  0  0  0  0999 V2000
    3.5197   -0.4650   -0.0158 O   0  0  0  0  0  0  0  0  0  0  0  0
    3.0822    0.5983   -0.3883 C   0  0  0  0  0  0  0  0  0  0  0  0
    1.6250    0.8433   -0.4134 C   0  0  0  0  0  0  0  0  0  0  0  0
    0.9211   -0.3933    0.0741 C   0  0  0  0  0  0  0  0  0  0  0  0
   -0.4395   -0.2934    0.0983 C   0  0  0  0  0  0  0  0  0  0  0  0
   -1.3993   -0.0331   -0.9967 C   0  0  0  0  0  0  0  0  0  0  0  0
   -2.2917   -0.1964    0.2091 C   0  0  0  0  0  0  0  0  0  0  0  0
   -1.2727    0.6494    0.9323 C   0  0  0  0  0  0  0  0  0  0  0  0
   -1.4135   -1.3606    0.5706 C   0  0  0  0  0  0  0  0  0  0  0  0
    3.7537    1.3780   -0.7059 H   0  0  0  0  0  0  0  0  0  0  0  0
    1.3546    1.0565   -1.4742 H   0  0  0  0  0  0  0  0  0  0  0  0
    1.4359    1.7238    0.2406 H   0  0  0  0  0  0  0  0  0  0  0  0
    1.2968   -1.2375   -0.5497 H   0  0  0  0  0  0  0  0  0  0  0  0
    1.3566   -0.6039    1.0961 H   0  0  0  0  0  0  0  0  0  0  0  0
   -1.4105    0.9744   -1.4503 H   0  0  0  0  0  0  0  0  0  0  0  0
   -1.5103   -0.8689   -1.7178 H   0  0  0  0  0  0  0  0  0  0  0  0
   -3.2843   -0.1281    0.2504 H   0  0  0  0  0  0  0  0  0  0  0  0
   -1.2689    0.4200    1.9998 H   0  0  0  0  0  0  0  0  0  0  0  0
   -1.2338    1.7091    0.6333 H   0  0  0  0  0  0  0  0  0  0  0  0
   -1.4810   -2.2477   -0.0582 H   0  0  0  0  0  0  0  0  0  0  0  0
   -1.3402   -1.5249    1.6657 H   0  0  0  0  0  0  0  0  0  0  0  0
  1  2  2  0
  2  3  1  0
  3  4  1  0
  4  5  1  0
  5  6  1  0
  6  7  1  0
  7  8  1  0
  7  9  1  0
  8  5  1  0
  9  5  1  0
  2 10  1  0
  3 11  1  0
  3 12  1  0
  4 13  1  0
  4 14  1  0
  6 15  1  0
  6 16  1  0
  7 17  1  0
  8 18  1  0
  8 19  1  0
  9 20  1  0
  9 21  1  0
M  END
