
     RDKit          3D

 11 11  0  0  0  0  0  0  0  0999 V2000
    2.1123   -1.1652    0.9433 O   0  0  0  0  0  0  0  0  0  0  0  0
    2.0090   -0.2390    0.0958 C   0  0  0  0  0  0  0  0  0  0  0  0
    0.7280    0.3942   -0.1946 C   0  0  0  0  0  0  0  0  0  0  0  0
    0.7009    1.3127   -1.0532 O   0  0  0  0  0  0  0  0  0  0  0  0
   -0.4958   -0.0343    0.5012 C   0  0  0  0  0  0  0  0  0  0  0  0
   -1.7641   -0.0408   -0.3361 C   0  0  0  0  0  0  0  0  0  0  0  0
   -1.4541    0.9826    0.6242 O   0  0  0  0  0  0  0  0  0  0  0  0
    2.9229    0.0571   -0.4013 H   0  0  0  0  0  0  0  0  0  0  0  0
   -0.4686   -0.8348    1.2486 H   0  0  0  0  0  0  0  0  0  0  0  0
   -2.6070   -0.6686   -0.0370 H   0  0  0  0  0  0  0  0  0  0  0  0
   -1.6835    0.2360   -1.3906 H   0  0  0  0  0  0  0  0  0  0  0  0
  1  2  2  0
  2  3  1  0
  3  4  2  0
  3  5  1  0
  5  6  1  0
  6  7  1  0
  7  5  1  0
  2  8  1  0
  5  9  1  0
  6 10  1  0
  6 11  1  0
M  END
