
     RDKit          3D

 17 17  0  0  0  0  0  0  0  0999 V2000
    0.9986    1.8740    1.4805 O   0  0  0  0  0  0  0  0  0  0  0  0
    0.5316    0.7578    1.4766 C   0  0  0  0  0  0  0  0  0  0  0  0
    0.1425    0.1735    0.1699 C   0  0  0  0  0  0  0  0  0  0  0  0
    1.2350    0.3513   -0.8592 C   0  0  0  0  0  0  0  0  0  0  0  0
    2.3712   -0.2988   -0.3722 O   0  0  0  0  0  0  0  0  0  0  0  0
   -1.2242    0.6537   -0.2547 C   0  0  0  0  0  0  0  0  0  0  0  0
   -1.5965   -0.7885   -0.4157 C   0  0  0  0  0  0  0  0  0  0  0  0
   -0.3145   -1.2273    0.2083 C   0  0  0  0  0  0  0  0  0  0  0  0
    0.0415   -2.3395    0.5474 O   0  0  0  0  0  0  0  0  0  0  0  0
    0.4074    0.2145    2.4040 H   0  0  0  0  0  0  0  0  0  0  0  0
    0.9113   -0.0898   -1.8380 H   0  0  0  0  0  0  0  0  0  0  0  0
    1.4867    1.4353   -0.9780 H   0  0  0  0  0  0  0  0  0  0  0  0
    2.1319   -0.9353    0.3381 H   0  0  0  0  0  0  0  0  0  0  0  0
   -1.7604    1.2035    0.5503 H   0  0  0  0  0  0  0  0  0  0  0  0
   -1.2457    1.2270   -1.2085 H   0  0  0  0  0  0  0  0  0  0  0  0
   -2.4427   -1.1429    0.2282 H   0  0  0  0  0  0  0  0  0  0  0  0
   -1.6738   -1.0683   -1.4770 H   0  0  0  0  0  0  0  0  0  0  0  0
  1  2  2  0
  2  3  1  0
  3  4  1  0
  4  5  1  0
  3  6  1  0
  6  7  1  0
  7  8  1  0
  8  9  2  0
  8  3  1  0
  2 10  1  0
  4 11  1  0
  4 12  1  0
  5 13  1  0
  6 14  1  0
  6 15  1  0
  7 16  1  0
  7 17  1  0
M  END
