
     RDKit          3D

 17 17  0  0  0  0  0  0  0  0999 V2000
   -3.1263    1.4022   -1.1321 O   0  0  0  0  0  0  0  0  0  0  0  0
   -2.2067    1.2430   -0.3476 C   0  0  0  0  0  0  0  0  0  0  0  0
   -1.6470   -0.1308   -0.2431 C   0  0  0  0  0  0  0  0  0  0  0  0
   -0.5152   -0.1949    0.7612 C   0  0  0  0  0  0  0  0  0  0  0  0
    0.1270   -1.5250    0.9530 C   0  0  0  0  0  0  0  0  0  0  0  0
    0.8716   -0.5013    0.1905 C   0  0  0  0  0  0  0  0  0  0  0  0
    1.9114    0.2396    0.7622 O   0  0  0  0  0  0  0  0  0  0  0  0
    2.9267    0.8448    0.0567 C   0  0  0  0  0  0  0  0  0  0  0  0
    2.9222    0.7248   -1.1952 O   0  0  0  0  0  0  0  0  0  0  0  0
   -1.7951    2.0485    0.2596 H   0  0  0  0  0  0  0  0  0  0  0  0
   -2.4660   -0.7734    0.1814 H   0  0  0  0  0  0  0  0  0  0  0  0
   -1.3206   -0.5254   -1.2312 H   0  0  0  0  0  0  0  0  0  0  0  0
   -0.5711    0.4977    1.6264 H   0  0  0  0  0  0  0  0  0  0  0  0
   -0.2760   -2.3687    0.3811 H   0  0  0  0  0  0  0  0  0  0  0  0
    0.5350   -1.8167    1.9454 H   0  0  0  0  0  0  0  0  0  0  0  0
    0.9352   -0.5639   -0.9291 H   0  0  0  0  0  0  0  0  0  0  0  0
    3.6951    1.3994    0.5555 H   0  0  0  0  0  0  0  0  0  0  0  0
  1  2  2  0
  2  3  1  0
  3  4  1  0
  4  5  1  0
  5  6  1  0
  6  7  1  0
  7  8  1  0
  8  9  2  0
  6  4  1  0
  2 10  1  0
  3 11  1  0
  3 12  1  0
  4 13  1  0
  5 14  1  0
  5 15  1  0
  6 16  1  0
  8 17  1  0
M  END
