
     RDKit          3D

 16 17  0  0  0  0  0  0  0  0999 V2000
    2.5669   -0.9195    0.6889 O   0  0  0  0  0  0  0  0  0  0  0  0
    1.9233    0.0747    0.3979 C   0  0  0  0  0  0  0  0  0  0  0  0
    0.7832   -0.0771   -0.5258 C   0  0  0  0  0  0  0  0  0  0  0  0
   -0.0832   -1.2051   -0.0584 C   0  0  0  0  0  0  0  0  0  0  0  0
   -1.3918   -0.6132    0.4059 C   0  0  0  0  0  0  0  0  0  0  0  0
   -1.1806    0.2222    1.5507 O   0  0  0  0  0  0  0  0  0  0  0  0
   -1.3089    0.8111    0.3227 C   0  0  0  0  0  0  0  0  0  0  0  0
   -0.1338    1.1106   -0.5464 C   0  0  0  0  0  0  0  0  0  0  0  0
    2.2290    1.0274    0.8404 H   0  0  0  0  0  0  0  0  0  0  0  0
    1.1830   -0.3157   -1.5507 H   0  0  0  0  0  0  0  0  0  0  0  0
   -0.2613   -1.9201   -0.9001 H   0  0  0  0  0  0  0  0  0  0  0  0
    0.3553   -1.7315    0.8158 H   0  0  0  0  0  0  0  0  0  0  0  0
   -2.3233   -1.1649    0.3377 H   0  0  0  0  0  0  0  0  0  0  0  0
   -2.2045    1.4181    0.1364 H   0  0  0  0  0  0  0  0  0  0  0  0
   -0.5259    1.2144   -1.6002 H   0  0  0  0  0  0  0  0  0  0  0  0
    0.3726    2.0687   -0.3148 H   0  0  0  0  0  0  0  0  0  0  0  0
  1  2  2  0
  2  3  1  0
  3  4  1  0
  4  5  1  0
  5  6  1  0
  6  7  1  0
  7  8  1  0
  8  3  1  0
  7  5  1  0
  2  9  1  0
  3 10  1  0
  4 11  1  0
  4 12  1  0
  5 13  1  0
  7 14  1  0
  8 15  1  0
  8 16  1  0
M  END
