
     RDKit          3D

 15 16  0  0  0  0  0  0  0  0999 V2000
   -0.9479    1.1167    1.5854 O   0  0  0  0  0  0  0  0  0  0  0  0
   -1.6742    0.9199    0.6280 C   0  0  0  0  0  0  0  0  0  0  0  0
   -1.2849    0.1169   -0.5607 C   0  0  0  0  0  0  0  0  0  0  0  0
   -0.4684   -1.0843   -0.2815 C   0  0  0  0  0  0  0  0  0  0  0  0
    0.5351   -0.9249    0.8000 C   0  0  0  0  0  0  0  0  0  0  0  0
    0.7233   -1.3346    1.9245 O   0  0  0  0  0  0  0  0  0  0  0  0
    1.2776   -0.0034   -0.0844 C   0  0  0  0  0  0  0  0  0  0  0  0
    1.7585    1.1521    0.4924 O   0  0  0  0  0  0  0  0  0  0  0  0
    0.1179    0.1479   -1.0182 C   0  0  0  0  0  0  0  0  0  0  0  0
   -2.6606    1.3602    0.6535 H   0  0  0  0  0  0  0  0  0  0  0  0
   -2.0389    0.0228   -1.3482 H   0  0  0  0  0  0  0  0  0  0  0  0
   -0.4883   -1.9856   -0.9000 H   0  0  0  0  0  0  0  0  0  0  0  0
    2.1227   -0.5695   -0.5665 H   0  0  0  0  0  0  0  0  0  0  0  0
    2.6908    1.0182    0.7554 H   0  0  0  0  0  0  0  0  0  0  0  0
    0.3372    0.0475   -2.0797 H   0  0  0  0  0  0  0  0  0  0  0  0
  1  2  2  0
  2  3  1  0
  3  4  1  0
  4  5  1  0
  5  6  2  0
  5  7  1  0
  7  8  1  0
  7  9  1  0
  9  3  1  0
  9  4  1  0
  2 10  1  0
  3 11  1  0
  4 12  1  0
  7 13  1  0
  8 14  1  0
  9 15  1  0
M  END
