
     RDKit          3D

 17 19  0  0  0  0  0  0  0  0999 V2000
    2.6315   -0.8399   -1.2527 O   0  0  0  0  0  0  0  0  0  0  0  0
    2.2083   -0.2879   -0.2277 C   0  0  0  0  0  0  0  0  0  0  0  0
    0.7560   -0.1241   -0.1378 C   0  0  0  0  0  0  0  0  0  0  0  0
    0.1713    1.2719   -0.2381 C   0  0  0  0  0  0  0  0  0  0  0  0
   -1.3152    1.0730   -0.0277 C   0  0  0  0  0  0  0  0  0  0  0  0
   -1.4875   -0.3507    0.4804 C   0  0  0  0  0  0  0  0  0  0  0  0
   -1.4497   -1.2215   -0.6062 O   0  0  0  0  0  0  0  0  0  0  0  0
   -0.0727   -1.2803   -0.5570 C   0  0  0  0  0  0  0  0  0  0  0  0
   -0.1028   -0.7761    0.8270 C   0  0  0  0  0  0  0  0  0  0  0  0
    2.9376    0.0141    0.4882 H   0  0  0  0  0  0  0  0  0  0  0  0
    0.5380    1.8730    0.6447 H   0  0  0  0  0  0  0  0  0  0  0  0
    0.4178    1.7863   -1.1627 H   0  0  0  0  0  0  0  0  0  0  0  0
   -1.7790    1.1628   -1.0491 H   0  0  0  0  0  0  0  0  0  0  0  0
   -1.7524    1.8167    0.6568 H   0  0  0  0  0  0  0  0  0  0  0  0
   -2.2791   -0.5062    1.2090 H   0  0  0  0  0  0  0  0  0  0  0  0
    0.4173   -2.2418   -0.7225 H   0  0  0  0  0  0  0  0  0  0  0  0
    0.1606   -1.3695    1.6754 H   0  0  0  0  0  0  0  0  0  0  0  0
  1  2  2  0
  2  3  1  0
  3  4  1  0
  4  5  1  0
  5  6  1  0
  6  7  1  0
  7  8  1  0
  8  9  1  0
  8  3  1  0
  9  3  1  0
  9  6  1  0
  2 10  1  0
  4 11  1  0
  4 12  1  0
  5 13  1  0
  5 14  1  0
  6 15  1  0
  8 16  1  0
  9 17  1  0
M  END
