
     RDKit          3D

 17 19  0  0  0  0  0  0  0  0999 V2000
    2.5838    1.1534   -0.8613 O   0  0  0  0  0  0  0  0  0  0  0  0
    2.1014    0.0539   -0.5951 C   0  0  0  0  0  0  0  0  0  0  0  0
    0.7942   -0.0685   -0.0348 C   0  0  0  0  0  0  0  0  0  0  0  0
   -0.1419   -1.2043   -0.2103 C   0  0  0  0  0  0  0  0  0  0  0  0
   -1.4677   -0.5243   -0.4738 C   0  0  0  0  0  0  0  0  0  0  0  0
   -1.2883    0.9413   -0.2269 C   0  0  0  0  0  0  0  0  0  0  0  0
   -0.0082    0.9904    0.5775 C   0  0  0  0  0  0  0  0  0  0  0  0
    0.4305   -0.1789    1.3662 C   0  0  0  0  0  0  0  0  0  0  0  0
   -0.0443   -1.4457    1.1743 O   0  0  0  0  0  0  0  0  0  0  0  0
    2.7143   -0.8079   -0.8060 H   0  0  0  0  0  0  0  0  0  0  0  0
    0.1254   -2.0262   -0.8577 H   0  0  0  0  0  0  0  0  0  0  0  0
   -1.8731   -0.7606   -1.4729 H   0  0  0  0  0  0  0  0  0  0  0  0
   -2.2446   -0.8855    0.2557 H   0  0  0  0  0  0  0  0  0  0  0  0
   -2.1420    1.4006    0.3061 H   0  0  0  0  0  0  0  0  0  0  0  0
   -1.0790    1.4253   -1.1989 H   0  0  0  0  0  0  0  0  0  0  0  0
    0.4372    1.9514    0.8395 H   0  0  0  0  0  0  0  0  0  0  0  0
    1.1025   -0.0144    2.2183 H   0  0  0  0  0  0  0  0  0  0  0  0
  1  2  2  0
  2  3  1  0
  3  4  1  0
  4  5  1  0
  5  6  1  0
  6  7  1  0
  7  8  1  0
  8  9  1  0
  7  3  1  0
  8  3  1  0
  9  4  1  0
  2 10  1  0
  4 11  1  0
  5 12  1  0
  5 13  1  0
  6 14  1  0
  6 15  1  0
  7 16  1  0
  8 17  1  0
M  END
