
     RDKit          3D

 15 16  0  0  0  0  0  0  0  0999 V2000
    2.4369    0.2023    1.1558 O   0  0  0  0  0  0  0  0  0  0  0  0
    2.0541    0.3868    0.0209 C   0  0  0  0  0  0  0  0  0  0  0  0
    0.8743   -0.3783   -0.4513 C   0  0  0  0  0  0  0  0  0  0  0  0
    0.3843   -1.2283    0.5602 O   0  0  0  0  0  0  0  0  0  0  0  0
   -0.9423   -0.8540    0.6395 C   0  0  0  0  0  0  0  0  0  0  0  0
   -0.8019    0.6758    0.7472 C   0  0  0  0  0  0  0  0  0  0  0  0
   -0.3369    0.4758   -0.6838 C   0  0  0  0  0  0  0  0  0  0  0  0
   -1.3903   -0.5676   -0.7447 C   0  0  0  0  0  0  0  0  0  0  0  0
   -2.2009   -0.9797   -1.5186 O   0  0  0  0  0  0  0  0  0  0  0  0
    2.5946    1.0973   -0.5794 H   0  0  0  0  0  0  0  0  0  0  0  0
    1.1164   -0.9088   -1.3700 H   0  0  0  0  0  0  0  0  0  0  0  0
   -1.6031   -1.3272    1.3222 H   0  0  0  0  0  0  0  0  0  0  0  0
   -1.8057    1.1108    0.8016 H   0  0  0  0  0  0  0  0  0  0  0  0
   -0.0485    1.0130    1.4565 H   0  0  0  0  0  0  0  0  0  0  0  0
   -0.3311    1.2820   -1.3558 H   0  0  0  0  0  0  0  0  0  0  0  0
  1  2  2  0
  2  3  1  0
  3  4  1  0
  4  5  1  0
  5  6  1  0
  6  7  1  0
  7  8  1  0
  8  9  2  0
  7  3  1  0
  8  5  1  0
  2 10  1  0
  3 11  1  0
  5 12  1  0
  6 13  1  0
  6 14  1  0
  7 15  1  0
M  END
