
     RDKit          3D

 15 17  0  0  0  0  0  0  0  0999 V2000
   -2.3201    0.9042    1.2577 O   0  0  0  0  0  0  0  0  0  0  0  0
   -2.4611    0.1801    0.2862 C   0  0  0  0  0  0  0  0  0  0  0  0
   -1.3358   -0.3489   -0.5241 C   0  0  0  0  0  0  0  0  0  0  0  0
   -0.5111    0.7699   -1.1011 O   0  0  0  0  0  0  0  0  0  0  0  0
   -0.0525   -0.1648   -0.2056 C   0  0  0  0  0  0  0  0  0  0  0  0
    0.7717    0.1171    0.9581 C   0  0  0  0  0  0  0  0  0  0  0  0
    1.8771    0.5034    0.0035 C   0  0  0  0  0  0  0  0  0  0  0  0
    1.2472   -0.7821   -0.4747 C   0  0  0  0  0  0  0  0  0  0  0  0
    1.2752   -1.1807    0.8585 O   0  0  0  0  0  0  0  0  0  0  0  0
   -3.4748   -0.0766    0.0204 H   0  0  0  0  0  0  0  0  0  0  0  0
   -1.6719   -0.9978   -1.3775 H   0  0  0  0  0  0  0  0  0  0  0  0
    0.5622    0.5943    1.8245 H   0  0  0  0  0  0  0  0  0  0  0  0
    2.8973    0.4387    0.3805 H   0  0  0  0  0  0  0  0  0  0  0  0
    1.6334    1.3724   -0.6437 H   0  0  0  0  0  0  0  0  0  0  0  0
    1.5631   -1.3290   -1.2629 H   0  0  0  0  0  0  0  0  0  0  0  0
  1  2  2  0
  2  3  1  0
  3  4  1  0
  4  5  1  0
  5  6  1  0
  6  7  1  0
  7  8  1  0
  8  9  1  0
  5  3  1  0
  9  6  1  0
  8  5  1  0
  2 10  1  0
  3 11  1  0
  6 12  1  0
  7 13  1  0
  7 14  1  0
  8 15  1  0
M  END
