
     RDKit          3D

 15 15  0  0  0  0  0  0  0  0999 V2000
    3.0297    0.3379    0.6555 O   0  0  0  0  0  0  0  0  0  0  0  0
    2.1658   -0.4105    0.2625 C   0  0  0  0  0  0  0  0  0  0  0  0
    1.0270    0.1129   -0.4944 C   0  0  0  0  0  0  0  0  0  0  0  0
    0.1460   -0.8677   -0.8607 O   0  0  0  0  0  0  0  0  0  0  0  0
   -0.5628   -0.6436    0.3172 C   0  0  0  0  0  0  0  0  0  0  0  0
   -2.0205   -0.7943    0.0846 C   0  0  0  0  0  0  0  0  0  0  0  0
   -2.8467   -0.6453    0.9704 O   0  0  0  0  0  0  0  0  0  0  0  0
   -0.0635    0.7713    0.3165 C   0  0  0  0  0  0  0  0  0  0  0  0
   -0.8505    1.5854   -0.4949 O   0  0  0  0  0  0  0  0  0  0  0  0
    2.2509   -1.4571    0.4784 H   0  0  0  0  0  0  0  0  0  0  0  0
    1.3752    0.7949   -1.2927 H   0  0  0  0  0  0  0  0  0  0  0  0
   -0.1745   -1.2046    1.1970 H   0  0  0  0  0  0  0  0  0  0  0  0
   -2.3917   -1.0450   -0.8963 H   0  0  0  0  0  0  0  0  0  0  0  0
    0.2406    1.1949    1.2770 H   0  0  0  0  0  0  0  0  0  0  0  0
   -1.3250    2.2708    0.0384 H   0  0  0  0  0  0  0  0  0  0  0  0
  1  2  2  0
  2  3  1  0
  3  4  1  0
  4  5  1  0
  5  6  1  0
  6  7  2  0
  5  8  1  0
  8  9  1  0
  8  3  1  0
  2 10  1  0
  3 11  1  0
  5 12  1  0
  6 13  1  0
  8 14  1  0
  9 15  1  0
M  END
