
     RDKit          3D

 19 19  0  0  0  0  0  0  0  0999 V2000
   -1.4826    1.8648    0.8602 O   0  0  0  0  0  0  0  0  0  0  0  0
   -2.3092    1.0948    0.4591 C   0  0  0  0  0  0  0  0  0  0  0  0
   -2.3496   -0.3466    0.3702 C   0  0  0  0  0  0  0  0  0  0  0  0
   -1.3362   -1.1486    0.6731 O   0  0  0  0  0  0  0  0  0  0  0  0
   -0.1718   -1.2431    0.0229 C   0  0  0  0  0  0  0  0  0  0  0  0
    0.6753   -0.0279    0.0374 C   0  0  0  0  0  0  0  0  0  0  0  0
    2.1754   -0.3323   -0.2067 C   0  0  0  0  0  0  0  0  0  0  0  0
    2.2449    0.8969    0.6742 C   0  0  0  0  0  0  0  0  0  0  0  0
    1.0883    0.4246    1.2874 O   0  0  0  0  0  0  0  0  0  0  0  0
   -3.2253    1.6247    0.0832 H   0  0  0  0  0  0  0  0  0  0  0  0
   -3.2171   -0.6717    1.0715 H   0  0  0  0  0  0  0  0  0  0  0  0
   -2.7568   -0.5842   -0.6947 H   0  0  0  0  0  0  0  0  0  0  0  0
   -0.2925   -1.5649   -1.0582 H   0  0  0  0  0  0  0  0  0  0  0  0
    0.4313   -2.0967    0.4831 H   0  0  0  0  0  0  0  0  0  0  0  0
    0.4034    0.8047   -0.6285 H   0  0  0  0  0  0  0  0  0  0  0  0
    2.4821   -1.2786    0.2667 H   0  0  0  0  0  0  0  0  0  0  0  0
    2.4721   -0.1756   -1.2551 H   0  0  0  0  0  0  0  0  0  0  0  0
    2.0356    1.8047    0.1053 H   0  0  0  0  0  0  0  0  0  0  0  0
    3.1328    0.9549    1.3282 H   0  0  0  0  0  0  0  0  0  0  0  0
  1  2  2  0
  2  3  1  0
  3  4  1  0
  4  5  1  0
  5  6  1  0
  6  7  1  0
  7  8  1  0
  8  9  1  0
  9  6  1  0
  2 10  1  0
  3 11  1  0
  3 12  1  0
  5 13  1  0
  5 14  1  0
  6 15  1  0
  7 16  1  0
  7 17  1  0
  8 18  1  0
  8 19  1  0
M  END
