
     RDKit          3D

 19 19  0  0  0  0  0  0  0  0999 V2000
    2.9751    0.7301    1.0615 O   0  0  0  0  0  0  0  0  0  0  0  0
    2.8078    0.7705   -0.1341 C   0  0  0  0  0  0  0  0  0  0  0  0
    1.4149    0.8498   -0.7474 C   0  0  0  0  0  0  0  0  0  0  0  0
    0.8758   -0.5237   -0.7673 C   0  0  0  0  0  0  0  0  0  0  0  0
    0.8298   -0.9632    0.6810 O   0  0  0  0  0  0  0  0  0  0  0  0
   -0.2025   -1.2036   -0.1991 C   0  0  0  0  0  0  0  0  0  0  0  0
   -1.6189   -0.8939    0.0598 C   0  0  0  0  0  0  0  0  0  0  0  0
   -1.9940    0.2391    0.9320 C   0  0  0  0  0  0  0  0  0  0  0  0
   -1.5634    1.4520    0.4305 O   0  0  0  0  0  0  0  0  0  0  0  0
    3.6582    0.7527   -0.7894 H   0  0  0  0  0  0  0  0  0  0  0  0
    0.9287    1.6119   -0.1697 H   0  0  0  0  0  0  0  0  0  0  0  0
    1.5857    1.2528   -1.7758 H   0  0  0  0  0  0  0  0  0  0  0  0
    1.6529   -1.1901   -1.3282 H   0  0  0  0  0  0  0  0  0  0  0  0
   -0.1533   -2.3622   -0.4421 H   0  0  0  0  0  0  0  0  0  0  0  0
   -2.2143   -0.8082   -0.9139 H   0  0  0  0  0  0  0  0  0  0  0  0
   -2.1501   -1.7976    0.5203 H   0  0  0  0  0  0  0  0  0  0  0  0
   -3.1244    0.3564    0.9872 H   0  0  0  0  0  0  0  0  0  0  0  0
   -1.7102    0.0941    1.9987 H   0  0  0  0  0  0  0  0  0  0  0  0
   -1.9978    1.6333   -0.4371 H   0  0  0  0  0  0  0  0  0  0  0  0
  1  2  2  0
  2  3  1  0
  3  4  1  0
  4  5  1  0
  5  6  1  0
  6  7  1  0
  7  8  1  0
  8  9  1  0
  6  4  1  0
  2 10  1  0
  3 11  1  0
  3 12  1  0
  4 13  1  0
  6 14  1  0
  7 15  1  0
  7 16  1  0
  8 17  1  0
  8 18  1  0
  9 19  1  0
M  END
