
     RDKit          3D

 15 16  0  0  0  0  0  0  0  0999 V2000
    2.5547    1.4577   -0.5104 O   0  0  0  0  0  0  0  0  0  0  0  0
    1.9974    0.3783   -0.2551 C   0  0  0  0  0  0  0  0  0  0  0  0
    0.5967    0.3195   -0.0825 C   0  0  0  0  0  0  0  0  0  0  0  0
   -0.0168   -0.4109    1.0890 C   0  0  0  0  0  0  0  0  0  0  0  0
   -1.2552   -0.4078    0.1751 C   0  0  0  0  0  0  0  0  0  0  0  0
   -0.2181   -0.6835   -0.9185 C   0  0  0  0  0  0  0  0  0  0  0  0
   -1.4882    1.0159    0.0218 C   0  0  0  0  0  0  0  0  0  0  0  0
   -2.4968    1.7600    0.0511 O   0  0  0  0  0  0  0  0  0  0  0  0
   -0.1774    1.5071   -0.2027 O   0  0  0  0  0  0  0  0  0  0  0  0
    2.6667   -0.4665   -0.1834 H   0  0  0  0  0  0  0  0  0  0  0  0
    0.3334   -1.4571    1.1682 H   0  0  0  0  0  0  0  0  0  0  0  0
   -0.1440    0.1517    2.0104 H   0  0  0  0  0  0  0  0  0  0  0  0
   -2.0063   -1.1150    0.3521 H   0  0  0  0  0  0  0  0  0  0  0  0
   -0.4710   -0.3228   -1.9058 H   0  0  0  0  0  0  0  0  0  0  0  0
    0.1250   -1.7266   -0.8092 H   0  0  0  0  0  0  0  0  0  0  0  0
  1  2  2  0
  2  3  1  0
  3  4  1  0
  4  5  1  0
  5  6  1  0
  5  7  1  0
  7  8  2  0
  7  9  1  0
  6  3  1  0
  9  3  1  0
  2 10  1  0
  4 11  1  0
  4 12  1  0
  5 13  1  0
  6 14  1  0
  6 15  1  0
M  END
