
     RDKit          3D

 17 18  0  0  0  0  0  0  0  0999 V2000
    2.8411    0.4399    0.0099 O   0  0  0  0  0  0  0  0  0  0  0  0
    1.7758    1.0112    0.0869 C   0  0  0  0  0  0  0  0  0  0  0  0
    0.6172    0.4834   -0.6159 C   0  0  0  0  0  0  0  0  0  0  0  0
   -0.7349    0.7179   -0.0139 C   0  0  0  0  0  0  0  0  0  0  0  0
   -1.6059   -0.0658   -0.9632 C   0  0  0  0  0  0  0  0  0  0  0  0
   -0.8794   -1.2012   -1.1234 C   0  0  0  0  0  0  0  0  0  0  0  0
    0.2881   -0.9778   -0.2770 C   0  0  0  0  0  0  0  0  0  0  0  0
   -0.3701   -0.3825    0.9759 C   0  0  0  0  0  0  0  0  0  0  0  0
    0.5197   -0.0367    1.9538 O   0  0  0  0  0  0  0  0  0  0  0  0
    1.7151    1.9046    0.6805 H   0  0  0  0  0  0  0  0  0  0  0  0
    0.6973    0.6013   -1.7130 H   0  0  0  0  0  0  0  0  0  0  0  0
   -1.0458    1.6529    0.3278 H   0  0  0  0  0  0  0  0  0  0  0  0
   -2.5523    0.1988   -1.4008 H   0  0  0  0  0  0  0  0  0  0  0  0
   -1.1028   -2.0683   -1.7296 H   0  0  0  0  0  0  0  0  0  0  0  0
    1.0684   -1.6603   -0.1648 H   0  0  0  0  0  0  0  0  0  0  0  0
   -1.2437   -1.0021    1.2753 H   0  0  0  0  0  0  0  0  0  0  0  0
    0.0121    0.3846    2.6916 H   0  0  0  0  0  0  0  0  0  0  0  0
  1  2  2  0
  2  3  1  0
  3  4  1  0
  4  5  1  0
  5  6  2  0
  6  7  1  0
  7  8  1  0
  8  9  1  0
  7  3  1  0
  8  4  1  0
  2 10  1  0
  3 11  1  0
  4 12  1  0
  5 13  1  0
  6 14  1  0
  7 15  1  0
  8 16  1  0
  9 17  1  0
M  END
