
     RDKit          3D

 15 14  0  0  0  0  0  0  0  0999 V2000
   -1.7142    1.9955    1.3549 O   0  0  0  0  0  0  0  0  0  0  0  0
   -1.8775    1.1157    0.5112 C   0  0  0  0  0  0  0  0  0  0  0  0
   -0.9966   -0.0940    0.5006 C   0  0  0  0  0  0  0  0  0  0  0  0
   -1.3970   -0.9202   -0.5483 O   0  0  0  0  0  0  0  0  0  0  0  0
    0.3973    0.3874    0.1728 C   0  0  0  0  0  0  0  0  0  0  0  0
    1.3883   -0.7654    0.1339 C   0  0  0  0  0  0  0  0  0  0  0  0
    2.6327   -0.2011   -0.1763 O   0  0  0  0  0  0  0  0  0  0  0  0
   -2.6590    1.2366   -0.2089 H   0  0  0  0  0  0  0  0  0  0  0  0
   -1.0275   -0.6348    1.4741 H   0  0  0  0  0  0  0  0  0  0  0  0
   -1.3470   -1.8829   -0.3097 H   0  0  0  0  0  0  0  0  0  0  0  0
    0.3511    0.8574   -0.8306 H   0  0  0  0  0  0  0  0  0  0  0  0
    0.7645    1.1353    0.8903 H   0  0  0  0  0  0  0  0  0  0  0  0
    1.4985   -1.2158    1.1414 H   0  0  0  0  0  0  0  0  0  0  0  0
    1.1170   -1.5025   -0.6345 H   0  0  0  0  0  0  0  0  0  0  0  0
    2.8694    0.4887    0.4890 H   0  0  0  0  0  0  0  0  0  0  0  0
  1  2  2  0
  2  3  1  0
  3  4  1  0
  3  5  1  0
  5  6  1  0
  6  7  1  0
  2  8  1  0
  3  9  1  0
  4 10  1  0
  5 11  1  0
  5 12  1  0
  6 13  1  0
  6 14  1  0
  7 15  1  0
M  END
