
     RDKit          3D

 13 12  0  0  0  0  0  0  0  0999 V2000
   -2.5988    1.5257   -0.6084 O   0  0  0  0  0  0  0  0  0  0  0  0
   -2.5735    0.4910   -0.1349 C   0  0  0  0  0  0  0  0  0  0  0  0
   -1.7963   -0.7190   -0.6179 C   0  0  0  0  0  0  0  0  0  0  0  0
   -0.3735   -0.5809   -0.3377 C   0  0  0  0  0  0  0  0  0  0  0  0
    0.8233   -0.4788   -0.1015 C   0  0  0  0  0  0  0  0  0  0  0  0
    2.2249   -0.3419    0.1690 C   0  0  0  0  0  0  0  0  0  0  0  0
    3.0315   -1.3119   -0.0837 O   0  0  0  0  0  0  0  0  0  0  0  0
    2.7780    0.8809    0.7266 C   0  0  0  0  0  0  0  0  0  0  0  0
    2.0208    1.8206    0.9910 O   0  0  0  0  0  0  0  0  0  0  0  0
   -3.1556    0.2249    0.8323 H   0  0  0  0  0  0  0  0  0  0  0  0
   -2.1620   -1.6157   -0.0638 H   0  0  0  0  0  0  0  0  0  0  0  0
   -2.0592   -0.8292   -1.6693 H   0  0  0  0  0  0  0  0  0  0  0  0
    3.8405    0.9343    0.8983 H   0  0  0  0  0  0  0  0  0  0  0  0
  1  2  2  0
  2  3  1  0
  3  4  1  0
  4  5  3  0
  5  6  1  0
  6  7  2  0
  6  8  1  0
  8  9  2  0
  2 10  1  0
  3 11  1  0
  3 12  1  0
  8 13  1  0
M  END
