
     RDKit          3D

 21 21  0  0  0  0  0  0  0  0999 V2000
    3.1722   -1.0407   -1.2088 O   0  0  0  0  0  0  0  0  0  0  0  0
    3.0361   -0.2356   -0.3181 C   0  0  0  0  0  0  0  0  0  0  0  0
    1.9016    0.7198   -0.3102 C   0  0  0  0  0  0  0  0  0  0  0  0
    0.6213    0.0995    0.2118 C   0  0  0  0  0  0  0  0  0  0  0  0
   -0.4457    1.1556    0.1740 C   0  0  0  0  0  0  0  0  0  0  0  0
   -1.7563    0.6747   -0.3664 C   0  0  0  0  0  0  0  0  0  0  0  0
   -2.1069   -0.7125    0.0979 C   0  0  0  0  0  0  0  0  0  0  0  0
   -0.8711   -1.5562    0.2158 C   0  0  0  0  0  0  0  0  0  0  0  0
    0.1966   -0.9922   -0.5104 O   0  0  0  0  0  0  0  0  0  0  0  0
    3.7514   -0.2052    0.4916 H   0  0  0  0  0  0  0  0  0  0  0  0
    1.7368    1.1828   -1.3076 H   0  0  0  0  0  0  0  0  0  0  0  0
    2.1573    1.5519    0.3763 H   0  0  0  0  0  0  0  0  0  0  0  0
    0.8508   -0.2451    1.2570 H   0  0  0  0  0  0  0  0  0  0  0  0
   -0.1479    2.0444   -0.4375 H   0  0  0  0  0  0  0  0  0  0  0  0
   -0.6224    1.4847    1.2230 H   0  0  0  0  0  0  0  0  0  0  0  0
   -1.8038    0.6888   -1.4695 H   0  0  0  0  0  0  0  0  0  0  0  0
   -2.5431    1.3772    0.0129 H   0  0  0  0  0  0  0  0  0  0  0  0
   -2.8467   -1.1771   -0.6136 H   0  0  0  0  0  0  0  0  0  0  0  0
   -2.6662   -0.6363    1.0709 H   0  0  0  0  0  0  0  0  0  0  0  0
   -1.0396   -2.6093   -0.0886 H   0  0  0  0  0  0  0  0  0  0  0  0
   -0.5743   -1.5691    1.2995 H   0  0  0  0  0  0  0  0  0  0  0  0
  1  2  2  0
  2  3  1  0
  3  4  1  0
  4  5  1  0
  5  6  1  0
  6  7  1  0
  7  8  1  0
  8  9  1  0
  9  4  1  0
  2 10  1  0
  3 11  1  0
  3 12  1  0
  4 13  1  0
  5 14  1  0
  5 15  1  0
  6 16  1  0
  6 17  1  0
  7 18  1  0
  7 19  1  0
  8 20  1  0
  8 21  1  0
M  END
