
     RDKit          3D

 17 19  0  0  0  0  0  0  0  0999 V2000
    2.4182    1.2361    0.1499 O   0  0  0  0  0  0  0  0  0  0  0  0
    2.0059    0.1010   -0.0904 C   0  0  0  0  0  0  0  0  0  0  0  0
    0.5864   -0.1627   -0.0879 C   0  0  0  0  0  0  0  0  0  0  0  0
   -0.0410   -0.7422   -1.3301 C   0  0  0  0  0  0  0  0  0  0  0  0
   -1.3845   -0.4792   -1.2673 O   0  0  0  0  0  0  0  0  0  0  0  0
   -1.5903    0.5696   -0.3670 C   0  0  0  0  0  0  0  0  0  0  0  0
   -1.1249    0.3245    1.0177 C   0  0  0  0  0  0  0  0  0  0  0  0
   -0.0431   -0.7494    1.1391 C   0  0  0  0  0  0  0  0  0  0  0  0
   -0.2790    1.0474    0.0952 C   0  0  0  0  0  0  0  0  0  0  0  0
    2.7690   -0.6381   -0.2923 H   0  0  0  0  0  0  0  0  0  0  0  0
    0.4656   -0.2786   -2.2188 H   0  0  0  0  0  0  0  0  0  0  0  0
    0.1399   -1.8471   -1.3041 H   0  0  0  0  0  0  0  0  0  0  0  0
   -2.4198    1.2628   -0.5261 H   0  0  0  0  0  0  0  0  0  0  0  0
   -1.5522    0.7761    1.9005 H   0  0  0  0  0  0  0  0  0  0  0  0
   -0.5508   -1.7415    0.9849 H   0  0  0  0  0  0  0  0  0  0  0  0
    0.5288   -0.7280    2.0650 H   0  0  0  0  0  0  0  0  0  0  0  0
    0.0719    2.0493    0.1316 H   0  0  0  0  0  0  0  0  0  0  0  0
  1  2  2  0
  2  3  1  0
  3  4  1  0
  4  5  1  0
  5  6  1  0
  6  7  1  0
  7  8  1  0
  7  9  1  0
  8  3  1  0
  9  3  1  0
  9  6  1  0
  2 10  1  0
  4 11  1  0
  4 12  1  0
  6 13  1  0
  7 14  1  0
  8 15  1  0
  8 16  1  0
  9 17  1  0
M  END
