
     RDKit          3D

 19 20  0  0  0  0  0  0  0  0999 V2000
    2.4900    1.2924    1.5087 O   0  0  0  0  0  0  0  0  0  0  0  0
    2.0650    0.3275    0.9037 C   0  0  0  0  0  0  0  0  0  0  0  0
    0.9108    0.5272    0.0159 C   0  0  0  0  0  0  0  0  0  0  0  0
    0.4315   -0.7661   -0.6055 C   0  0  0  0  0  0  0  0  0  0  0  0
   -0.6951   -0.5612   -1.5667 C   0  0  0  0  0  0  0  0  0  0  0  0
   -1.4833    0.5115   -1.2982 O   0  0  0  0  0  0  0  0  0  0  0  0
   -1.4536    1.0126   -0.0374 C   0  0  0  0  0  0  0  0  0  0  0  0
   -0.3823    0.4540    0.8406 C   0  0  0  0  0  0  0  0  0  0  0  0
   -0.2417   -1.0415    0.7471 C   0  0  0  0  0  0  0  0  0  0  0  0
    2.5274   -0.6339    1.0232 H   0  0  0  0  0  0  0  0  0  0  0  0
    0.9223    1.4033   -0.6414 H   0  0  0  0  0  0  0  0  0  0  0  0
    1.1813   -1.4806   -0.9080 H   0  0  0  0  0  0  0  0  0  0  0  0
   -1.3088   -1.5092   -1.5512 H   0  0  0  0  0  0  0  0  0  0  0  0
   -0.2965   -0.5100   -2.6096 H   0  0  0  0  0  0  0  0  0  0  0  0
   -1.2336    2.1187   -0.1279 H   0  0  0  0  0  0  0  0  0  0  0  0
   -2.4584    0.9659    0.4296 H   0  0  0  0  0  0  0  0  0  0  0  0
   -0.3102    0.9117    1.8141 H   0  0  0  0  0  0  0  0  0  0  0  0
   -1.1713   -1.6099    0.6214 H   0  0  0  0  0  0  0  0  0  0  0  0
    0.5066   -1.4125    1.4416 H   0  0  0  0  0  0  0  0  0  0  0  0
  1  2  2  0
  2  3  1  0
  3  4  1  0
  4  5  1  0
  5  6  1  0
  6  7  1  0
  7  8  1  0
  8  9  1  0
  8  3  1  0
  9  4  1  0
  2 10  1  0
  3 11  1  0
  4 12  1  0
  5 13  1  0
  5 14  1  0
  7 15  1  0
  7 16  1  0
  8 17  1  0
  9 18  1  0
  9 19  1  0
M  END
