
     RDKit          3D

 16 17  0  0  0  0  0  0  0  0999 V2000
    2.2662    1.1513   -0.8883 O   0  0  0  0  0  0  0  0  0  0  0  0
    2.1065    0.0375   -0.4173 C   0  0  0  0  0  0  0  0  0  0  0  0
    0.9829   -0.3133    0.4892 C   0  0  0  0  0  0  0  0  0  0  0  0
    0.1557    0.8197    0.7093 O   0  0  0  0  0  0  0  0  0  0  0  0
   -1.0760    0.3743    0.3026 C   0  0  0  0  0  0  0  0  0  0  0  0
   -0.7998   -0.3490   -1.0231 C   0  0  0  0  0  0  0  0  0  0  0  0
   -0.0027   -1.2539   -0.1061 C   0  0  0  0  0  0  0  0  0  0  0  0
   -1.1815   -1.0565    0.8610 C   0  0  0  0  0  0  0  0  0  0  0  0
    2.8187   -0.7363   -0.6717 H   0  0  0  0  0  0  0  0  0  0  0  0
    1.3333   -0.7232    1.4546 H   0  0  0  0  0  0  0  0  0  0  0  0
   -1.9393    0.9828    0.3598 H   0  0  0  0  0  0  0  0  0  0  0  0
   -0.2353    0.2246   -1.7538 H   0  0  0  0  0  0  0  0  0  0  0  0
   -1.7211   -0.8294   -1.3605 H   0  0  0  0  0  0  0  0  0  0  0  0
    0.2416   -2.2307   -0.4038 H   0  0  0  0  0  0  0  0  0  0  0  0
   -2.1080   -1.5428    0.5586 H   0  0  0  0  0  0  0  0  0  0  0  0
   -0.8411   -1.1638    1.8895 H   0  0  0  0  0  0  0  0  0  0  0  0
  1  2  2  0
  2  3  1  0
  3  4  1  0
  4  5  1  0
  5  6  1  0
  6  7  1  0
  7  8  1  0
  7  3  1  0
  8  5  1  0
  2  9  1  0
  3 10  1  0
  5 11  1  0
  6 12  1  0
  6 13  1  0
  7 14  1  0
  8 15  1  0
  8 16  1  0
M  END
