
     RDKit          3D

 21 21  0  0  0  0  0  0  0  0999 V2000
    0.7314   -1.5672    1.8053 O   0  0  0  0  0  0  0  0  0  0  0  0
    0.6861   -1.6781    0.5944 C   0  0  0  0  0  0  0  0  0  0  0  0
    0.0190   -0.6345   -0.2147 C   0  0  0  0  0  0  0  0  0  0  0  0
    0.6617    0.6986   -0.1250 C   0  0  0  0  0  0  0  0  0  0  0  0
    2.0946    0.7280   -0.5971 C   0  0  0  0  0  0  0  0  0  0  0  0
    2.9239   -0.1005    0.1043 O   0  0  0  0  0  0  0  0  0  0  0  0
   -1.4256   -0.5396    0.1964 C   0  0  0  0  0  0  0  0  0  0  0  0
   -2.3501    0.4229   -0.4534 C   0  0  0  0  0  0  0  0  0  0  0  0
   -1.8213    0.7193    0.9448 C   0  0  0  0  0  0  0  0  0  0  0  0
    1.1372   -2.5406    0.1438 H   0  0  0  0  0  0  0  0  0  0  0  0
   -0.0161   -0.9993   -1.2882 H   0  0  0  0  0  0  0  0  0  0  0  0
    0.0566    1.4384   -0.6727 H   0  0  0  0  0  0  0  0  0  0  0  0
    0.7170    1.0720    0.9410 H   0  0  0  0  0  0  0  0  0  0  0  0
    2.1274    0.4126   -1.6792 H   0  0  0  0  0  0  0  0  0  0  0  0
    2.4834    1.7669   -0.5933 H   0  0  0  0  0  0  0  0  0  0  0  0
    2.9369   -1.0014   -0.2638 H   0  0  0  0  0  0  0  0  0  0  0  0
   -1.8903   -1.5047    0.5380 H   0  0  0  0  0  0  0  0  0  0  0  0
   -1.9518    0.9750   -1.3038 H   0  0  0  0  0  0  0  0  0  0  0  0
   -3.4215    0.1950   -0.4912 H   0  0  0  0  0  0  0  0  0  0  0  0
   -1.1914    1.6022    0.9746 H   0  0  0  0  0  0  0  0  0  0  0  0
   -2.5071    0.5351    1.7993 H   0  0  0  0  0  0  0  0  0  0  0  0
  1  2  2  0
  2  3  1  0
  3  4  1  0
  4  5  1  0
  5  6  1  0
  3  7  1  0
  7  8  1  0
  8  9  1  0
  9  7  1  0
  2 10  1  0
  3 11  1  0
  4 12  1  0
  4 13  1  0
  5 14  1  0
  5 15  1  0
  6 16  1  0
  7 17  1  0
  8 18  1  0
  8 19  1  0
  9 20  1  0
  9 21  1  0
M  END
