
     RDKit          3D

 17 18  0  0  0  0  0  0  0  0999 V2000
   -1.2686    2.3906   -0.8579 O   0  0  0  0  0  0  0  0  0  0  0  0
   -0.3162    1.6233   -0.8877 C   0  0  0  0  0  0  0  0  0  0  0  0
   -0.1627    0.5316    0.0809 C   0  0  0  0  0  0  0  0  0  0  0  0
    1.2128    0.3941    0.6927 C   0  0  0  0  0  0  0  0  0  0  0  0
    2.1068   -0.5869    0.2026 C   0  0  0  0  0  0  0  0  0  0  0  0
    1.2750   -0.9212    1.3833 O   0  0  0  0  0  0  0  0  0  0  0  0
   -0.7146   -0.7718   -0.5034 C   0  0  0  0  0  0  0  0  0  0  0  0
   -1.9363   -0.4914    0.3320 C   0  0  0  0  0  0  0  0  0  0  0  0
   -1.2028    0.4805    1.0077 O   0  0  0  0  0  0  0  0  0  0  0  0
    0.4154    1.7899   -1.6709 H   0  0  0  0  0  0  0  0  0  0  0  0
    1.4905    1.1672    1.4097 H   0  0  0  0  0  0  0  0  0  0  0  0
    3.1560   -0.6762    0.5092 H   0  0  0  0  0  0  0  0  0  0  0  0
    1.8515   -1.2120   -0.6765 H   0  0  0  0  0  0  0  0  0  0  0  0
   -0.8609   -0.7368   -1.5913 H   0  0  0  0  0  0  0  0  0  0  0  0
   -0.0813   -1.6070   -0.1568 H   0  0  0  0  0  0  0  0  0  0  0  0
   -2.2208   -1.3035    1.0152 H   0  0  0  0  0  0  0  0  0  0  0  0
   -2.7438   -0.0703   -0.2888 H   0  0  0  0  0  0  0  0  0  0  0  0
  1  2  2  0
  2  3  1  0
  3  4  1  0
  4  5  1  0
  5  6  1  0
  3  7  1  0
  7  8  1  0
  8  9  1  0
  9  3  1  0
  6  4  1  0
  2 10  1  0
  4 11  1  0
  5 12  1  0
  5 13  1  0
  7 14  1  0
  7 15  1  0
  8 16  1  0
  8 17  1  0
M  END
