
     RDKit          3D

 19 18  0  0  0  0  0  0  0  0999 V2000
    3.3214    0.0716    1.2064 O   0  0  0  0  0  0  0  0  0  0  0  0
    3.1748   -0.7013    0.2814 C   0  0  0  0  0  0  0  0  0  0  0  0
    1.8869   -0.8035   -0.4140 C   0  0  0  0  0  0  0  0  0  0  0  0
    0.9049    0.1421    0.1927 C   0  0  0  0  0  0  0  0  0  0  0  0
   -0.4610    0.0698   -0.5047 C   0  0  0  0  0  0  0  0  0  0  0  0
   -1.3313    1.0677    0.2105 C   0  0  0  0  0  0  0  0  0  0  0  0
   -2.6324    1.1710   -0.2651 O   0  0  0  0  0  0  0  0  0  0  0  0
   -3.4901    0.0908   -0.2542 C   0  0  0  0  0  0  0  0  0  0  0  0
   -3.0643   -1.0010    0.2016 O   0  0  0  0  0  0  0  0  0  0  0  0
    4.0406   -1.2986    0.0090 H   0  0  0  0  0  0  0  0  0  0  0  0
    1.4483   -1.8194   -0.3934 H   0  0  0  0  0  0  0  0  0  0  0  0
    2.0275   -0.5349   -1.4903 H   0  0  0  0  0  0  0  0  0  0  0  0
    0.7236   -0.1007    1.2551 H   0  0  0  0  0  0  0  0  0  0  0  0
    1.2165    1.1976    0.1455 H   0  0  0  0  0  0  0  0  0  0  0  0
   -0.2931    0.3440   -1.5751 H   0  0  0  0  0  0  0  0  0  0  0  0
   -0.8369   -0.9704   -0.4479 H   0  0  0  0  0  0  0  0  0  0  0  0
   -0.8422    2.0737    0.0818 H   0  0  0  0  0  0  0  0  0  0  0  0
   -1.2691    0.8346    1.2921 H   0  0  0  0  0  0  0  0  0  0  0  0
   -4.5241    0.1671   -0.6317 H   0  0  0  0  0  0  0  0  0  0  0  0
  1  2  2  0
  2  3  1  0
  3  4  1  0
  4  5  1  0
  5  6  1  0
  6  7  1  0
  7  8  1  0
  8  9  2  0
  2 10  1  0
  3 11  1  0
  3 12  1  0
  4 13  1  0
  4 14  1  0
  5 15  1  0
  5 16  1  0
  6 17  1  0
  6 18  1  0
  8 19  1  0
M  END
