
     RDKit          3D

 17 17  0  0  0  0  0  0  0  0999 V2000
   -2.9920    0.7170    0.6415 O   0  0  0  0  0  0  0  0  0  0  0  0
   -2.1981   -0.2031    0.5476 C   0  0  0  0  0  0  0  0  0  0  0  0
   -0.9659    0.0247   -0.2173 C   0  0  0  0  0  0  0  0  0  0  0  0
   -0.2021    1.2348    0.2940 C   0  0  0  0  0  0  0  0  0  0  0  0
    1.1382    1.0056   -0.3575 C   0  0  0  0  0  0  0  0  0  0  0  0
    1.9986    1.8250   -0.6225 O   0  0  0  0  0  0  0  0  0  0  0  0
    1.2812   -0.4463   -0.6531 C   0  0  0  0  0  0  0  0  0  0  0  0
    2.4590   -0.9806   -0.2155 O   0  0  0  0  0  0  0  0  0  0  0  0
    0.0632   -1.0781    0.0144 C   0  0  0  0  0  0  0  0  0  0  0  0
   -2.4395   -1.1247    1.0254 H   0  0  0  0  0  0  0  0  0  0  0  0
   -1.1073    0.1565   -1.2907 H   0  0  0  0  0  0  0  0  0  0  0  0
   -0.6955    2.1337   -0.0616 H   0  0  0  0  0  0  0  0  0  0  0  0
   -0.0970    1.1403    1.3823 H   0  0  0  0  0  0  0  0  0  0  0  0
    1.1094   -0.5620   -1.7498 H   0  0  0  0  0  0  0  0  0  0  0  0
    2.6541   -0.6119    0.6816 H   0  0  0  0  0  0  0  0  0  0  0  0
   -0.2171   -2.0096   -0.5102 H   0  0  0  0  0  0  0  0  0  0  0  0
    0.2107   -1.2216    1.0914 H   0  0  0  0  0  0  0  0  0  0  0  0
  1  2  2  0
  2  3  1  0
  3  4  1  0
  4  5  1  0
  5  6  2  0
  5  7  1  0
  7  8  1  0
  7  9  1  0
  9  3  1  0
  2 10  1  0
  3 11  1  0
  4 12  1  0
  4 13  1  0
  7 14  1  0
  8 15  1  0
  9 16  1  0
  9 17  1  0
M  END
