
     RDKit          3D

 17 18  0  0  0  0  0  0  0  0999 V2000
    3.7033    0.0245   -0.0764 O   0  0  0  0  0  0  0  0  0  0  0  0
    2.5619    0.1309    0.3001 C   0  0  0  0  0  0  0  0  0  0  0  0
    1.4698   -0.5623   -0.4563 C   0  0  0  0  0  0  0  0  0  0  0  0
    0.1351   -0.2909    0.1907 C   0  0  0  0  0  0  0  0  0  0  0  0
   -0.0781    1.1054    0.1732 O   0  0  0  0  0  0  0  0  0  0  0  0
   -1.4807    1.1701    0.3401 C   0  0  0  0  0  0  0  0  0  0  0  0
   -2.0141    0.1381   -0.6390 C   0  0  0  0  0  0  0  0  0  0  0  0
   -2.2064   -1.1262   -0.1306 O   0  0  0  0  0  0  0  0  0  0  0  0
   -0.9576   -0.8655   -0.6832 C   0  0  0  0  0  0  0  0  0  0  0  0
    2.3483    0.7342    1.1897 H   0  0  0  0  0  0  0  0  0  0  0  0
    1.4767   -0.1792   -1.4871 H   0  0  0  0  0  0  0  0  0  0  0  0
    1.6457   -1.6668   -0.4033 H   0  0  0  0  0  0  0  0  0  0  0  0
    0.0981   -0.6510    1.2215 H   0  0  0  0  0  0  0  0  0  0  0  0
   -1.6662    0.8946    1.3910 H   0  0  0  0  0  0  0  0  0  0  0  0
   -1.8749    2.1727    0.1624 H   0  0  0  0  0  0  0  0  0  0  0  0
   -2.4562    0.4595   -1.5884 H   0  0  0  0  0  0  0  0  0  0  0  0
   -0.7047   -1.4880   -1.5417 H   0  0  0  0  0  0  0  0  0  0  0  0
  1  2  2  0
  2  3  1  0
  3  4  1  0
  4  5  1  0
  5  6  1  0
  6  7  1  0
  7  8  1  0
  8  9  1  0
  9  4  1  0
  9  7  1  0
  2 10  1  0
  3 11  1  0
  3 12  1  0
  4 13  1  0
  6 14  1  0
  6 15  1  0
  7 16  1  0
  9 17  1  0
M  END
