
     RDKit          3D

 19 18  0  0  0  0  0  0  0  0999 V2000
   -3.1458    0.6219   -1.5677 O   0  0  0  0  0  0  0  0  0  0  0  0
   -2.4975   -0.3286   -1.1811 C   0  0  0  0  0  0  0  0  0  0  0  0
   -2.2509   -0.5824    0.2640 C   0  0  0  0  0  0  0  0  0  0  0  0
   -1.1436    0.3336    0.7728 C   0  0  0  0  0  0  0  0  0  0  0  0
    0.1454    0.0917    0.0123 C   0  0  0  0  0  0  0  0  0  0  0  0
    1.0977    0.9490    0.5197 O   0  0  0  0  0  0  0  0  0  0  0  0
    2.3278    0.8446   -0.0789 C   0  0  0  0  0  0  0  0  0  0  0  0
    2.9479   -0.4819    0.0281 C   0  0  0  0  0  0  0  0  0  0  0  0
    4.0327   -0.6569   -0.4745 O   0  0  0  0  0  0  0  0  0  0  0  0
   -2.0919   -1.0050   -1.9181 H   0  0  0  0  0  0  0  0  0  0  0  0
   -3.1895   -0.3258    0.8051 H   0  0  0  0  0  0  0  0  0  0  0  0
   -1.9734   -1.6404    0.4479 H   0  0  0  0  0  0  0  0  0  0  0  0
   -1.4540    1.3857    0.7107 H   0  0  0  0  0  0  0  0  0  0  0  0
   -0.9649    0.0940    1.8401 H   0  0  0  0  0  0  0  0  0  0  0  0
    0.0073    0.1553   -1.0770 H   0  0  0  0  0  0  0  0  0  0  0  0
    0.4686   -0.9498    0.2971 H   0  0  0  0  0  0  0  0  0  0  0  0
    2.9775    1.6385    0.3870 H   0  0  0  0  0  0  0  0  0  0  0  0
    2.2424    1.1489   -1.1476 H   0  0  0  0  0  0  0  0  0  0  0  0
    2.4641   -1.2925    0.5378 H   0  0  0  0  0  0  0  0  0  0  0  0
  1  2  2  0
  2  3  1  0
  3  4  1  0
  4  5  1  0
  5  6  1  0
  6  7  1  0
  7  8  1  0
  8  9  2  0
  2 10  1  0
  3 11  1  0
  3 12  1  0
  4 13  1  0
  4 14  1  0
  5 15  1  0
  5 16  1  0
  7 17  1  0
  7 18  1  0
  8 19  1  0
M  END
