
     RDKit          3D

 15 17  0  0  0  0  0  0  0  0999 V2000
    3.0728    0.3447   -0.2025 O   0  0  0  0  0  0  0  0  0  0  0  0
    2.1405   -0.0637    0.4583 C   0  0  0  0  0  0  0  0  0  0  0  0
    0.7797   -0.0009   -0.0412 C   0  0  0  0  0  0  0  0  0  0  0  0
   -0.2337    0.6433    0.8898 C   0  0  0  0  0  0  0  0  0  0  0  0
   -1.5788    0.2489    0.3462 C   0  0  0  0  0  0  0  0  0  0  0  0
   -1.9745    0.7337   -0.9046 O   0  0  0  0  0  0  0  0  0  0  0  0
   -1.3746   -0.6026   -0.7487 C   0  0  0  0  0  0  0  0  0  0  0  0
    0.1158   -0.6406   -1.0424 C   0  0  0  0  0  0  0  0  0  0  0  0
    0.7162    0.5946   -1.3808 O   0  0  0  0  0  0  0  0  0  0  0  0
    2.4293   -0.4719    1.4414 H   0  0  0  0  0  0  0  0  0  0  0  0
   -0.1135    0.1473    1.8692 H   0  0  0  0  0  0  0  0  0  0  0  0
   -0.0823    1.7326    0.9589 H   0  0  0  0  0  0  0  0  0  0  0  0
   -2.3982    0.2608    1.0901 H   0  0  0  0  0  0  0  0  0  0  0  0
   -2.0107   -1.4224   -1.1148 H   0  0  0  0  0  0  0  0  0  0  0  0
    0.5119   -1.5037   -1.6189 H   0  0  0  0  0  0  0  0  0  0  0  0
  1  2  2  0
  2  3  1  0
  3  4  1  0
  4  5  1  0
  5  6  1  0
  6  7  1  0
  7  8  1  0
  8  9  1  0
  8  3  1  0
  9  3  1  0
  7  5  1  0
  2 10  1  0
  4 11  1  0
  4 12  1  0
  5 13  1  0
  7 14  1  0
  8 15  1  0
M  END
