
     RDKit          3D

 16 15  0  0  0  0  0  0  0  0999 V2000
    2.1136    0.9091   -0.5656 O   0  0  0  0  0  0  0  0  0  0  0  0
    2.0514    0.8082    0.7000 C   0  0  0  0  0  0  0  0  0  0  0  0
    0.9523    0.0134    1.2072 C   0  0  0  0  0  0  0  0  0  0  0  0
   -0.3930    0.1967    0.5641 C   0  0  0  0  0  0  0  0  0  0  0  0
   -0.4724   -0.1143   -0.8971 C   0  0  0  0  0  0  0  0  0  0  0  0
   -0.1065   -1.4642   -1.1343 O   0  0  0  0  0  0  0  0  0  0  0  0
   -1.8965   -0.0006   -1.3157 C   0  0  0  0  0  0  0  0  0  0  0  0
   -2.5390   -0.9343   -1.6882 O   0  0  0  0  0  0  0  0  0  0  0  0
    2.8389    1.3424    1.1739 H   0  0  0  0  0  0  0  0  0  0  0  0
    0.8267    0.2475    2.2992 H   0  0  0  0  0  0  0  0  0  0  0  0
    1.2637   -1.0760    1.1886 H   0  0  0  0  0  0  0  0  0  0  0  0
   -1.0825   -0.5326    1.0864 H   0  0  0  0  0  0  0  0  0  0  0  0
   -0.7821    1.2138    0.7551 H   0  0  0  0  0  0  0  0  0  0  0  0
    0.1660    0.4976   -1.5474 H   0  0  0  0  0  0  0  0  0  0  0  0
   -0.5936   -2.0881   -0.5550 H   0  0  0  0  0  0  0  0  0  0  0  0
   -2.3470    0.9813   -1.2713 H   0  0  0  0  0  0  0  0  0  0  0  0
  1  2  2  0
  2  3  1  0
  3  4  1  0
  4  5  1  0
  5  6  1  0
  5  7  1  0
  7  8  2  0
  2  9  1  0
  3 10  1  0
  3 11  1  0
  4 12  1  0
  4 13  1  0
  5 14  1  0
  6 15  1  0
  7 16  1  0
M  END
