
     RDKit          3D

 19 19  0  0  0  0  0  0  0  0999 V2000
    5.3555    0.7241    0.4367 O   0  0  0  0  0  0  0  0  0  0  0  0
    4.4235    0.3608   -0.3193 C   0  0  0  0  0  0  0  0  0  0  0  0
    3.0535    0.3036    0.0903 C   0  0  0  0  0  0  0  0  0  0  0  0
    1.9018    0.2727    0.4471 C   0  0  0  0  0  0  0  0  0  0  0  0
    0.4926    0.2157    0.8707 C   0  0  0  0  0  0  0  0  0  0  0  0
   -0.3371    0.4125   -0.3810 C   0  0  0  0  0  0  0  0  0  0  0  0
   -1.7925    0.3553    0.0457 C   0  0  0  0  0  0  0  0  0  0  0  0
   -2.2983   -0.8802    0.6914 C   0  0  0  0  0  0  0  0  0  0  0  0
   -2.7307   -0.5388   -0.7190 C   0  0  0  0  0  0  0  0  0  0  0  0
    4.6732    0.0784   -1.3276 H   0  0  0  0  0  0  0  0  0  0  0  0
    0.2522   -0.7919    1.2667 H   0  0  0  0  0  0  0  0  0  0  0  0
    0.2502    1.0335    1.5661 H   0  0  0  0  0  0  0  0  0  0  0  0
   -0.1669    1.3984   -0.8463 H   0  0  0  0  0  0  0  0  0  0  0  0
   -0.1919   -0.3761   -1.1281 H   0  0  0  0  0  0  0  0  0  0  0  0
   -2.1885    1.3103    0.4453 H   0  0  0  0  0  0  0  0  0  0  0  0
   -1.6510   -1.7965    0.7600 H   0  0  0  0  0  0  0  0  0  0  0  0
   -3.0211   -0.8113    1.5091 H   0  0  0  0  0  0  0  0  0  0  0  0
   -2.2573   -1.1000   -1.5717 H   0  0  0  0  0  0  0  0  0  0  0  0
   -3.7672   -0.1707   -0.8587 H   0  0  0  0  0  0  0  0  0  0  0  0
  1  2  2  0
  2  3  1  0
  3  4  3  0
  4  5  1  0
  5  6  1  0
  6  7  1  0
  7  8  1  0
  8  9  1  0
  9  7  1  0
  2 10  1  0
  5 11  1  0
  5 12  1  0
  6 13  1  0
  6 14  1  0
  7 15  1  0
  8 16  1  0
  8 17  1  0
  9 18  1  0
  9 19  1  0
M  END
