
     RDKit          3D

 19 19  0  0  0  0  0  0  0  0999 V2000
    3.1829   -1.8560   -0.6758 O   0  0  0  0  0  0  0  0  0  0  0  0
    2.1503   -1.2099   -0.7294 C   0  0  0  0  0  0  0  0  0  0  0  0
    1.7634   -0.3448    0.3993 C   0  0  0  0  0  0  0  0  0  0  0  0
    0.4542    0.3554    0.1119 C   0  0  0  0  0  0  0  0  0  0  0  0
   -0.7044   -0.5700   -0.1253 C   0  0  0  0  0  0  0  0  0  0  0  0
   -1.9743    0.2307   -0.4054 C   0  0  0  0  0  0  0  0  0  0  0  0
   -2.9867   -0.7098   -0.6112 O   0  0  0  0  0  0  0  0  0  0  0  0
    0.4027    1.7598   -0.0686 C   0  0  0  0  0  0  0  0  0  0  0  0
    0.1311    1.2105    1.2837 O   0  0  0  0  0  0  0  0  0  0  0  0
    1.5552   -1.3129   -1.6370 H   0  0  0  0  0  0  0  0  0  0  0  0
    2.5788    0.4101    0.5990 H   0  0  0  0  0  0  0  0  0  0  0  0
    1.5964   -0.9923    1.2815 H   0  0  0  0  0  0  0  0  0  0  0  0
   -0.5479   -1.2542   -0.9624 H   0  0  0  0  0  0  0  0  0  0  0  0
   -0.8349   -1.1566    0.8098 H   0  0  0  0  0  0  0  0  0  0  0  0
   -2.2149    0.8457    0.4640 H   0  0  0  0  0  0  0  0  0  0  0  0
   -1.8605    0.7840   -1.3479 H   0  0  0  0  0  0  0  0  0  0  0  0
   -3.5714   -0.8155    0.1793 H   0  0  0  0  0  0  0  0  0  0  0  0
    1.3409    2.3457    0.0073 H   0  0  0  0  0  0  0  0  0  0  0  0
   -0.4609    2.2799   -0.5051 H   0  0  0  0  0  0  0  0  0  0  0  0
  1  2  2  0
  2  3  1  0
  3  4  1  0
  4  5  1  0
  5  6  1  0
  6  7  1  0
  4  8  1  0
  8  9  1  0
  9  4  1  0
  2 10  1  0
  3 11  1  0
  3 12  1  0
  5 13  1  0
  5 14  1  0
  6 15  1  0
  6 16  1  0
  7 17  1  0
  8 18  1  0
  8 19  1  0
M  END
