
     RDKit          3D

 14 14  0  0  0  0  0  0  0  0999 V2000
    3.7789    1.1128    0.9223 O   0  0  0  0  0  0  0  0  0  0  0  0
    3.2002    0.0221    0.7006 C   0  0  0  0  0  0  0  0  0  0  0  0
    1.8313   -0.0517    0.2682 C   0  0  0  0  0  0  0  0  0  0  0  0
    0.6694   -0.1351   -0.1046 C   0  0  0  0  0  0  0  0  0  0  0  0
   -0.7305   -0.2342   -0.5270 C   0  0  0  0  0  0  0  0  0  0  0  0
   -0.8978   -0.8529   -1.7693 O   0  0  0  0  0  0  0  0  0  0  0  0
   -1.7315   -0.5412    0.4952 C   0  0  0  0  0  0  0  0  0  0  0  0
   -1.6680    0.8242   -0.0845 C   0  0  0  0  0  0  0  0  0  0  0  0
    3.8044   -0.8777    0.8571 H   0  0  0  0  0  0  0  0  0  0  0  0
   -0.4384   -0.2436   -2.4256 H   0  0  0  0  0  0  0  0  0  0  0  0
   -1.4041   -0.6982    1.5502 H   0  0  0  0  0  0  0  0  0  0  0  0
   -2.6347   -1.1406    0.1933 H   0  0  0  0  0  0  0  0  0  0  0  0
   -2.4877    1.1861   -0.7713 H   0  0  0  0  0  0  0  0  0  0  0  0
   -1.2914    1.6299    0.5589 H   0  0  0  0  0  0  0  0  0  0  0  0
  1  2  2  0
  2  3  1  0
  3  4  3  0
  4  5  1  0
  5  6  1  0
  5  7  1  0
  7  8  1  0
  8  5  1  0
  2  9  1  0
  6 10  1  0
  7 11  1  0
  7 12  1  0
  8 13  1  0
  8 14  1  0
M  END
