
     RDKit          3D

 19 20  0  0  0  0  0  0  0  0999 V2000
   -1.2740    1.2286   -1.2962 O   0  0  0  0  0  0  0  0  0  0  0  0
   -2.1300    0.5726   -0.7881 C   0  0  0  0  0  0  0  0  0  0  0  0
   -1.9969   -0.3361    0.3411 C   0  0  0  0  0  0  0  0  0  0  0  0
   -0.6384   -0.4752    0.9123 C   0  0  0  0  0  0  0  0  0  0  0  0
    0.4114   -0.9912   -0.0222 C   0  0  0  0  0  0  0  0  0  0  0  0
    1.6284   -1.1150    0.6910 O   0  0  0  0  0  0  0  0  0  0  0  0
    2.3116   -0.0739    0.1236 C   0  0  0  0  0  0  0  0  0  0  0  0
    1.6627    1.2194   -0.1653 C   0  0  0  0  0  0  0  0  0  0  0  0
    1.1279    0.0423   -0.8594 C   0  0  0  0  0  0  0  0  0  0  0  0
   -3.1386    0.6687   -1.2280 H   0  0  0  0  0  0  0  0  0  0  0  0
   -2.3274   -1.3720    0.0198 H   0  0  0  0  0  0  0  0  0  0  0  0
   -2.7369   -0.0168    1.1522 H   0  0  0  0  0  0  0  0  0  0  0  0
   -0.7406   -1.1338    1.8270 H   0  0  0  0  0  0  0  0  0  0  0  0
   -0.3467    0.5131    1.3412 H   0  0  0  0  0  0  0  0  0  0  0  0
    0.1367   -1.9102   -0.5770 H   0  0  0  0  0  0  0  0  0  0  0  0
    3.3027   -0.2817   -0.2671 H   0  0  0  0  0  0  0  0  0  0  0  0
    2.2728    1.9144   -0.8088 H   0  0  0  0  0  0  0  0  0  0  0  0
    1.0508    1.7693    0.5560 H   0  0  0  0  0  0  0  0  0  0  0  0
    1.4248   -0.2224   -1.8959 H   0  0  0  0  0  0  0  0  0  0  0  0
  1  2  2  0
  2  3  1  0
  3  4  1  0
  4  5  1  0
  5  6  1  0
  6  7  1  0
  7  8  1  0
  8  9  1  0
  9  5  1  0
  9  7  1  0
  2 10  1  0
  3 11  1  0
  3 12  1  0
  4 13  1  0
  4 14  1  0
  5 15  1  0
  7 16  1  0
  8 17  1  0
  8 18  1  0
  9 19  1  0
M  END
