
     RDKit          3D

 17 18  0  0  0  0  0  0  0  0999 V2000
    2.8384    0.7575   -0.4479 O   0  0  0  0  0  0  0  0  0  0  0  0
    2.1373    0.1205    0.3469 C   0  0  0  0  0  0  0  0  0  0  0  0
    0.7811   -0.1433    0.0902 C   0  0  0  0  0  0  0  0  0  0  0  0
    0.3107   -1.3944   -0.5056 C   0  0  0  0  0  0  0  0  0  0  0  0
   -1.0327   -1.2204   -0.5729 C   0  0  0  0  0  0  0  0  0  0  0  0
   -1.2017    0.1416   -0.0135 C   0  0  0  0  0  0  0  0  0  0  0  0
   -2.3760    0.7105    0.1073 O   0  0  0  0  0  0  0  0  0  0  0  0
   -0.2554    0.0788    1.1937 C   0  0  0  0  0  0  0  0  0  0  0  0
   -0.0494    0.8901   -0.6874 C   0  0  0  0  0  0  0  0  0  0  0  0
    2.6469   -0.2153    1.2489 H   0  0  0  0  0  0  0  0  0  0  0  0
    0.9051   -2.2440   -0.8127 H   0  0  0  0  0  0  0  0  0  0  0  0
   -1.7675   -1.9231   -0.9479 H   0  0  0  0  0  0  0  0  0  0  0  0
   -2.4221    1.5856   -0.3761 H   0  0  0  0  0  0  0  0  0  0  0  0
   -0.2029    1.0528    1.6832 H   0  0  0  0  0  0  0  0  0  0  0  0
   -0.4641   -0.7879    1.8133 H   0  0  0  0  0  0  0  0  0  0  0  0
    0.0926    1.9153   -0.3548 H   0  0  0  0  0  0  0  0  0  0  0  0
    0.0597    0.6757   -1.7645 H   0  0  0  0  0  0  0  0  0  0  0  0
  1  2  2  0
  2  3  1  0
  3  4  1  0
  4  5  2  0
  5  6  1  0
  6  7  1  0
  6  8  1  0
  6  9  1  0
  8  3  1  0
  9  3  1  0
  2 10  1  0
  4 11  1  0
  5 12  1  0
  7 13  1  0
  8 14  1  0
  8 15  1  0
  9 16  1  0
  9 17  1  0
M  END
