
     RDKit          3D

 15 16  0  0  0  0  0  0  0  0999 V2000
    3.0683   -0.1909   -1.1056 O   0  0  0  0  0  0  0  0  0  0  0  0
    2.8331    0.0449    0.1025 C   0  0  0  0  0  0  0  0  0  0  0  0
    1.4779    0.1491    0.6134 C   0  0  0  0  0  0  0  0  0  0  0  0
    1.2765    0.3877    1.8364 O   0  0  0  0  0  0  0  0  0  0  0  0
    0.3495   -0.0325   -0.3414 C   0  0  0  0  0  0  0  0  0  0  0  0
   -0.8585   -0.7677    0.0060 C   0  0  0  0  0  0  0  0  0  0  0  0
   -2.2966   -0.2583   -0.1749 C   0  0  0  0  0  0  0  0  0  0  0  0
   -1.8329    0.6927    0.7735 O   0  0  0  0  0  0  0  0  0  0  0  0
   -0.7909    0.8053   -0.1465 C   0  0  0  0  0  0  0  0  0  0  0  0
    3.6450    0.1769    0.7956 H   0  0  0  0  0  0  0  0  0  0  0  0
    0.7157   -0.2359   -1.3815 H   0  0  0  0  0  0  0  0  0  0  0  0
   -0.7964   -1.1219    1.0824 H   0  0  0  0  0  0  0  0  0  0  0  0
   -2.5167    0.1211   -1.1643 H   0  0  0  0  0  0  0  0  0  0  0  0
   -3.0253   -0.9702    0.2091 H   0  0  0  0  0  0  0  0  0  0  0  0
   -1.2487    1.1997   -1.1048 H   0  0  0  0  0  0  0  0  0  0  0  0
  1  2  2  0
  2  3  1  0
  3  4  2  0
  3  5  1  0
  5  6  1  0
  6  7  1  0
  7  8  1  0
  8  9  1  0
  9  5  1  0
  9  6  1  0
  2 10  1  0
  5 11  1  0
  6 12  1  0
  7 13  1  0
  7 14  1  0
  9 15  1  0
M  END
