
     RDKit          3D

 16 17  0  0  0  0  0  0  0  0999 V2000
    2.3226   -0.3234    1.2288 O   0  0  0  0  0  0  0  0  0  0  0  0
    1.6127    0.4516    0.6567 C   0  0  0  0  0  0  0  0  0  0  0  0
    0.9077    0.1756   -0.5943 C   0  0  0  0  0  0  0  0  0  0  0  0
    0.6066   -1.3094   -0.8548 C   0  0  0  0  0  0  0  0  0  0  0  0
   -0.6337   -0.8648   -1.3743 O   0  0  0  0  0  0  0  0  0  0  0  0
   -0.5513    0.1375   -0.4654 C   0  0  0  0  0  0  0  0  0  0  0  0
   -1.1687   -0.0590    0.8547 C   0  0  0  0  0  0  0  0  0  0  0  0
   -1.4833    1.0970   -0.0380 C   0  0  0  0  0  0  0  0  0  0  0  0
    1.4798    1.4469    1.1047 H   0  0  0  0  0  0  0  0  0  0  0  0
    1.3533    0.5786   -1.5248 H   0  0  0  0  0  0  0  0  0  0  0  0
    0.3705   -1.8758    0.0836 H   0  0  0  0  0  0  0  0  0  0  0  0
    1.2630   -1.7925   -1.5683 H   0  0  0  0  0  0  0  0  0  0  0  0
   -1.8769   -0.9180    0.9353 H   0  0  0  0  0  0  0  0  0  0  0  0
   -0.5163    0.0395    1.7251 H   0  0  0  0  0  0  0  0  0  0  0  0
   -1.1666    2.0951    0.3114 H   0  0  0  0  0  0  0  0  0  0  0  0
   -2.5194    1.1211   -0.4803 H   0  0  0  0  0  0  0  0  0  0  0  0
  1  2  2  0
  2  3  1  0
  3  4  1  0
  4  5  1  0
  5  6  1  0
  6  7  1  0
  7  8  1  0
  6  3  1  0
  8  6  1  0
  2  9  1  0
  3 10  1  0
  4 11  1  0
  4 12  1  0
  7 13  1  0
  7 14  1  0
  8 15  1  0
  8 16  1  0
M  END
