
     RDKit          3D

 17 17  0  0  0  0  0  0  0  0999 V2000
    2.1205    0.7812    1.2034 O   0  0  0  0  0  0  0  0  0  0  0  0
    2.2739    0.2878    0.1051 C   0  0  0  0  0  0  0  0  0  0  0  0
    1.0932   -0.1038   -0.7000 C   0  0  0  0  0  0  0  0  0  0  0  0
   -0.1491    0.2273    0.0953 C   0  0  0  0  0  0  0  0  0  0  0  0
   -0.3109    1.6533    0.4469 C   0  0  0  0  0  0  0  0  0  0  0  0
   -1.2948    1.9820    1.0887 O   0  0  0  0  0  0  0  0  0  0  0  0
   -0.6916   -0.8533    0.9384 C   0  0  0  0  0  0  0  0  0  0  0  0
   -1.4488   -0.4528   -0.2975 C   0  0  0  0  0  0  0  0  0  0  0  0
   -1.4413   -1.2768   -1.4162 O   0  0  0  0  0  0  0  0  0  0  0  0
    3.2520    0.1317   -0.2898 H   0  0  0  0  0  0  0  0  0  0  0  0
    1.1449    0.4625   -1.6501 H   0  0  0  0  0  0  0  0  0  0  0  0
    1.1637   -1.2043   -0.8702 H   0  0  0  0  0  0  0  0  0  0  0  0
    0.3856    2.4326    0.1742 H   0  0  0  0  0  0  0  0  0  0  0  0
   -1.1351   -0.6613    1.9370 H   0  0  0  0  0  0  0  0  0  0  0  0
   -0.2098   -1.8501    0.8773 H   0  0  0  0  0  0  0  0  0  0  0  0
   -2.3920    0.0683   -0.1098 H   0  0  0  0  0  0  0  0  0  0  0  0
   -2.3603   -1.6243   -1.5328 H   0  0  0  0  0  0  0  0  0  0  0  0
  1  2  2  0
  2  3  1  0
  3  4  1  0
  4  5  1  0
  5  6  2  0
  4  7  1  0
  7  8  1  0
  8  9  1  0
  8  4  1  0
  2 10  1  0
  3 11  1  0
  3 12  1  0
  5 13  1  0
  7 14  1  0
  7 15  1  0
  8 16  1  0
  9 17  1  0
M  END
