
     RDKit          3D

 17 18  0  0  0  0  0  0  0  0999 V2000
   -2.1071    1.5003    1.1637 O   0  0  0  0  0  0  0  0  0  0  0  0
   -1.0062    1.2178    0.6923 C   0  0  0  0  0  0  0  0  0  0  0  0
   -0.7528   -0.1669    0.3141 C   0  0  0  0  0  0  0  0  0  0  0  0
   -1.8692   -0.9821   -0.3398 C   0  0  0  0  0  0  0  0  0  0  0  0
   -1.1757   -0.8011   -1.5363 O   0  0  0  0  0  0  0  0  0  0  0  0
    0.0043   -0.3153   -1.0206 C   0  0  0  0  0  0  0  0  0  0  0  0
    0.5641   -0.7921    0.2650 C   0  0  0  0  0  0  0  0  0  0  0  0
    1.8061   -0.0853    0.7371 C   0  0  0  0  0  0  0  0  0  0  0  0
    2.0064    1.0806    0.0048 O   0  0  0  0  0  0  0  0  0  0  0  0
   -0.3045    2.0321    0.5950 H   0  0  0  0  0  0  0  0  0  0  0  0
   -1.7768   -2.0677   -0.0518 H   0  0  0  0  0  0  0  0  0  0  0  0
   -2.8629   -0.5526   -0.2775 H   0  0  0  0  0  0  0  0  0  0  0  0
    0.4032    0.5812   -1.4925 H   0  0  0  0  0  0  0  0  0  0  0  0
    0.5802   -1.9025    0.4374 H   0  0  0  0  0  0  0  0  0  0  0  0
    2.6784   -0.7699    0.6967 H   0  0  0  0  0  0  0  0  0  0  0  0
    1.7023    0.1829    1.8280 H   0  0  0  0  0  0  0  0  0  0  0  0
    2.1100    1.8406    0.5958 H   0  0  0  0  0  0  0  0  0  0  0  0
  1  2  2  0
  2  3  1  0
  3  4  1  0
  4  5  1  0
  5  6  1  0
  6  7  1  0
  7  8  1  0
  8  9  1  0
  6  3  1  0
  7  3  1  0
  2 10  1  0
  4 11  1  0
  4 12  1  0
  6 13  1  0
  7 14  1  0
  8 15  1  0
  8 16  1  0
  9 17  1  0
M  END
