
     RDKit          3D

 17 17  0  0  0  0  0  0  0  0999 V2000
    2.3799    0.4706   -1.6159 O   0  0  0  0  0  0  0  0  0  0  0  0
    2.7502    0.2809   -0.4393 C   0  0  0  0  0  0  0  0  0  0  0  0
    1.8108   -0.0470    0.6045 C   0  0  0  0  0  0  0  0  0  0  0  0
    2.2314   -0.2422    1.7663 O   0  0  0  0  0  0  0  0  0  0  0  0
    0.3950   -0.1508    0.3229 C   0  0  0  0  0  0  0  0  0  0  0  0
   -0.4945   -0.4554    1.2326 C   0  0  0  0  0  0  0  0  0  0  0  0
   -1.8268   -0.4788    0.6193 C   0  0  0  0  0  0  0  0  0  0  0  0
   -1.6746    0.4789   -0.5341 C   0  0  0  0  0  0  0  0  0  0  0  0
   -0.2635    0.0851   -1.0077 C   0  0  0  0  0  0  0  0  0  0  0  0
    3.8206    0.3781   -0.2524 H   0  0  0  0  0  0  0  0  0  0  0  0
   -0.3231   -0.6683    2.2974 H   0  0  0  0  0  0  0  0  0  0  0  0
   -2.6314   -0.1439    1.3099 H   0  0  0  0  0  0  0  0  0  0  0  0
   -2.0595   -1.5058    0.2135 H   0  0  0  0  0  0  0  0  0  0  0  0
   -1.6073    1.5087   -0.1207 H   0  0  0  0  0  0  0  0  0  0  0  0
   -2.4188    0.3627   -1.3199 H   0  0  0  0  0  0  0  0  0  0  0  0
   -0.2612   -0.8400   -1.5799 H   0  0  0  0  0  0  0  0  0  0  0  0
    0.1730    0.9673   -1.4966 H   0  0  0  0  0  0  0  0  0  0  0  0
  1  2  2  0
  2  3  1  0
  3  4  2  0
  3  5  1  0
  5  6  2  0
  6  7  1  0
  7  8  1  0
  8  9  1  0
  9  5  1  0
  2 10  1  0
  6 11  1  0
  7 12  1  0
  7 13  1  0
  8 14  1  0
  8 15  1  0
  9 16  1  0
  9 17  1  0
M  END
