
     RDKit          3D

 18 17  0  0  0  0  0  0  0  0999 V2000
    2.5607   -1.7300    1.0585 O   0  0  0  0  0  0  0  0  0  0  0  0
    1.8339   -0.8083    0.7555 C   0  0  0  0  0  0  0  0  0  0  0  0
    1.3287   -0.5683   -0.6149 C   0  0  0  0  0  0  0  0  0  0  0  0
    0.4598    0.6410   -0.6663 C   0  0  0  0  0  0  0  0  0  0  0  0
    1.2143    1.7365   -0.2578 O   0  0  0  0  0  0  0  0  0  0  0  0
   -0.7612    0.5733    0.1891 C   0  0  0  0  0  0  0  0  0  0  0  0
   -1.6772   -0.5698   -0.1759 C   0  0  0  0  0  0  0  0  0  0  0  0
   -2.7706   -0.5229    0.6891 O   0  0  0  0  0  0  0  0  0  0  0  0
    1.5447   -0.1287    1.5403 H   0  0  0  0  0  0  0  0  0  0  0  0
    2.2331   -0.3448   -1.2452 H   0  0  0  0  0  0  0  0  0  0  0  0
    0.8745   -1.4679   -1.0741 H   0  0  0  0  0  0  0  0  0  0  0  0
    0.1356    0.8504   -1.7044 H   0  0  0  0  0  0  0  0  0  0  0  0
    0.5770    2.4458   -0.0031 H   0  0  0  0  0  0  0  0  0  0  0  0
   -0.5433    0.4821    1.2691 H   0  0  0  0  0  0  0  0  0  0  0  0
   -1.3417    1.5065    0.0221 H   0  0  0  0  0  0  0  0  0  0  0  0
   -2.0168   -0.4800   -1.2433 H   0  0  0  0  0  0  0  0  0  0  0  0
   -1.1610   -1.5313   -0.0707 H   0  0  0  0  0  0  0  0  0  0  0  0
   -2.4906   -0.0835    1.5321 H   0  0  0  0  0  0  0  0  0  0  0  0
  1  2  2  0
  2  3  1  0
  3  4  1  0
  4  5  1  0
  4  6  1  0
  6  7  1  0
  7  8  1  0
  2  9  1  0
  3 10  1  0
  3 11  1  0
  4 12  1  0
  5 13  1  0
  6 14  1  0
  6 15  1  0
  7 16  1  0
  7 17  1  0
  8 18  1  0
M  END
