
     RDKit          3D

 17 18  0  0  0  0  0  0  0  0999 V2000
   -3.1022    1.2110    0.8025 O   0  0  0  0  0  0  0  0  0  0  0  0
   -2.1144    0.8157    0.2286 C   0  0  0  0  0  0  0  0  0  0  0  0
   -1.9128   -0.6105   -0.0089 C   0  0  0  0  0  0  0  0  0  0  0  0
   -1.6644   -0.9236   -1.4200 O   0  0  0  0  0  0  0  0  0  0  0  0
   -0.6850   -1.2332   -0.3953 C   0  0  0  0  0  0  0  0  0  0  0  0
    0.5952   -0.5191   -0.6545 C   0  0  0  0  0  0  0  0  0  0  0  0
    1.0951    0.2443    0.5442 C   0  0  0  0  0  0  0  0  0  0  0  0
    2.3621    1.0040    0.4301 C   0  0  0  0  0  0  0  0  0  0  0  0
    2.3699   -0.2432    1.1059 O   0  0  0  0  0  0  0  0  0  0  0  0
   -1.3859    1.5357   -0.1043 H   0  0  0  0  0  0  0  0  0  0  0  0
   -2.7316   -1.2726    0.3783 H   0  0  0  0  0  0  0  0  0  0  0  0
   -0.5708   -2.3323   -0.1909 H   0  0  0  0  0  0  0  0  0  0  0  0
    1.3719   -1.2584   -0.9405 H   0  0  0  0  0  0  0  0  0  0  0  0
    0.5438    0.2059   -1.5096 H   0  0  0  0  0  0  0  0  0  0  0  0
    0.3925    0.5113    1.3621 H   0  0  0  0  0  0  0  0  0  0  0  0
    2.8630    0.9604   -0.5521 H   0  0  0  0  0  0  0  0  0  0  0  0
    2.5735    1.9045    1.0067 H   0  0  0  0  0  0  0  0  0  0  0  0
  1  2  2  0
  2  3  1  0
  3  4  1  0
  4  5  1  0
  5  6  1  0
  6  7  1  0
  7  8  1  0
  8  9  1  0
  5  3  1  0
  9  7  1  0
  2 10  1  0
  3 11  1  0
  5 12  1  0
  6 13  1  0
  6 14  1  0
  7 15  1  0
  8 16  1  0
  8 17  1  0
M  END
