
     RDKit          3D

 17 18  0  0  0  0  0  0  0  0999 V2000
    2.3590    0.2254   -1.2381 O   0  0  0  0  0  0  0  0  0  0  0  0
    2.0328   -0.0371   -0.0760 C   0  0  0  0  0  0  0  0  0  0  0  0
    0.7368   -0.6117    0.2654 C   0  0  0  0  0  0  0  0  0  0  0  0
   -0.2268   -0.5754   -0.9318 C   0  0  0  0  0  0  0  0  0  0  0  0
   -1.5044   -0.8685   -0.1732 C   0  0  0  0  0  0  0  0  0  0  0  0
   -1.3105   -0.4062    1.1381 O   0  0  0  0  0  0  0  0  0  0  0  0
   -0.1421    0.3566    1.0768 C   0  0  0  0  0  0  0  0  0  0  0  0
   -0.3831    1.4167    0.0241 C   0  0  0  0  0  0  0  0  0  0  0  0
   -0.1980    0.7911   -1.2197 O   0  0  0  0  0  0  0  0  0  0  0  0
    2.7285    0.1629    0.7317 H   0  0  0  0  0  0  0  0  0  0  0  0
    0.7922   -1.5906    0.7267 H   0  0  0  0  0  0  0  0  0  0  0  0
    0.0212   -1.2315   -1.7229 H   0  0  0  0  0  0  0  0  0  0  0  0
   -1.6614   -1.9799   -0.1361 H   0  0  0  0  0  0  0  0  0  0  0  0
   -2.3233   -0.3646   -0.6904 H   0  0  0  0  0  0  0  0  0  0  0  0
    0.2717    0.6714    1.9972 H   0  0  0  0  0  0  0  0  0  0  0  0
   -1.4514    1.7410    0.0890 H   0  0  0  0  0  0  0  0  0  0  0  0
    0.2588    2.3003    0.1392 H   0  0  0  0  0  0  0  0  0  0  0  0
  1  2  2  0
  2  3  1  0
  3  4  1  0
  4  5  1  0
  5  6  1  0
  6  7  1  0
  7  8  1  0
  8  9  1  0
  7  3  1  0
  9  4  1  0
  2 10  1  0
  3 11  1  0
  4 12  1  0
  5 13  1  0
  5 14  1  0
  7 15  1  0
  8 16  1  0
  8 17  1  0
M  END
