
     RDKit          3D

 15 16  0  0  0  0  0  0  0  0999 V2000
    2.5695    1.2963    0.2884 O   0  0  0  0  0  0  0  0  0  0  0  0
    2.3877    0.4030   -0.5095 C   0  0  0  0  0  0  0  0  0  0  0  0
    1.3198   -0.5835   -0.2284 C   0  0  0  0  0  0  0  0  0  0  0  0
    0.6530   -0.3226    0.9691 O   0  0  0  0  0  0  0  0  0  0  0  0
   -0.5085   -0.1407    0.2549 C   0  0  0  0  0  0  0  0  0  0  0  0
   -1.8302   -0.5345    0.7006 C   0  0  0  0  0  0  0  0  0  0  0  0
   -1.4705    0.9311    0.5278 C   0  0  0  0  0  0  0  0  0  0  0  0
    0.0938   -0.4231   -1.0245 C   0  0  0  0  0  0  0  0  0  0  0  0
   -0.2341   -0.4952   -2.1806 O   0  0  0  0  0  0  0  0  0  0  0  0
    3.0078    0.3609   -1.3896 H   0  0  0  0  0  0  0  0  0  0  0  0
    1.7193   -1.6300   -0.2729 H   0  0  0  0  0  0  0  0  0  0  0  0
   -2.6051   -0.9258    0.0244 H   0  0  0  0  0  0  0  0  0  0  0  0
   -1.9314   -0.9289    1.7448 H   0  0  0  0  0  0  0  0  0  0  0  0
   -1.2672    1.5400    1.4457 H   0  0  0  0  0  0  0  0  0  0  0  0
   -1.9039    1.4530   -0.3502 H   0  0  0  0  0  0  0  0  0  0  0  0
  1  2  2  0
  2  3  1  0
  3  4  1  0
  4  5  1  0
  5  6  1  0
  6  7  1  0
  5  8  1  0
  8  9  2  0
  8  3  1  0
  7  5  1  0
  2 10  1  0
  3 11  1  0
  6 12  1  0
  6 13  1  0
  7 14  1  0
  7 15  1  0
M  END
