
     RDKit          3D

 17 18  0  0  0  0  0  0  0  0999 V2000
    2.7509   -0.2433    0.9985 O   0  0  0  0  0  0  0  0  0  0  0  0
    2.0960   -0.6646    0.0766 C   0  0  0  0  0  0  0  0  0  0  0  0
    0.7909   -0.0584   -0.2763 C   0  0  0  0  0  0  0  0  0  0  0  0
    0.0546   -0.5417   -1.3226 O   0  0  0  0  0  0  0  0  0  0  0  0
   -1.0188   -1.2398   -0.7327 C   0  0  0  0  0  0  0  0  0  0  0  0
   -1.5095   -0.1843    0.2477 C   0  0  0  0  0  0  0  0  0  0  0  0
   -0.1888    0.2687    0.8511 C   0  0  0  0  0  0  0  0  0  0  0  0
    0.5633    1.3576    0.2297 C   0  0  0  0  0  0  0  0  0  0  0  0
   -0.0034    2.2010   -0.7133 O   0  0  0  0  0  0  0  0  0  0  0  0
    2.4388   -1.4993   -0.5243 H   0  0  0  0  0  0  0  0  0  0  0  0
   -1.7794   -1.5362   -1.4442 H   0  0  0  0  0  0  0  0  0  0  0  0
   -0.5668   -2.0648   -0.1510 H   0  0  0  0  0  0  0  0  0  0  0  0
   -2.2074   -0.5724    0.9842 H   0  0  0  0  0  0  0  0  0  0  0  0
   -1.9842    0.6485   -0.3335 H   0  0  0  0  0  0  0  0  0  0  0  0
    0.1294   -0.1336    1.8181 H   0  0  0  0  0  0  0  0  0  0  0  0
    1.3658    1.8183    0.8190 H   0  0  0  0  0  0  0  0  0  0  0  0
   -0.9313    2.4443   -0.5270 H   0  0  0  0  0  0  0  0  0  0  0  0
  1  2  2  0
  2  3  1  0
  3  4  1  0
  4  5  1  0
  5  6  1  0
  6  7  1  0
  7  8  1  0
  8  9  1  0
  7  3  1  0
  8  3  1  0
  2 10  1  0
  5 11  1  0
  5 12  1  0
  6 13  1  0
  6 14  1  0
  7 15  1  0
  8 16  1  0
  9 17  1  0
M  END
