
     RDKit          3D

 19 20  0  0  0  0  0  0  0  0999 V2000
   -2.6232   -1.6564    0.3593 O   0  0  0  0  0  0  0  0  0  0  0  0
   -2.5764   -0.5045    0.7135 C   0  0  0  0  0  0  0  0  0  0  0  0
   -1.7737    0.4549   -0.0194 C   0  0  0  0  0  0  0  0  0  0  0  0
   -0.3426    0.0788   -0.2292 C   0  0  0  0  0  0  0  0  0  0  0  0
    0.4239    1.1568   -1.0149 C   0  0  0  0  0  0  0  0  0  0  0  0
    0.7618    0.8293    0.3797 C   0  0  0  0  0  0  0  0  0  0  0  0
    1.8742   -0.1808    0.5332 C   0  0  0  0  0  0  0  0  0  0  0  0
    1.3787   -1.3516   -0.2221 C   0  0  0  0  0  0  0  0  0  0  0  0
    0.0207   -1.2359   -0.4157 O   0  0  0  0  0  0  0  0  0  0  0  0
   -3.1366   -0.2014    1.5811 H   0  0  0  0  0  0  0  0  0  0  0  0
   -1.8082    1.4935    0.3815 H   0  0  0  0  0  0  0  0  0  0  0  0
   -2.2419    0.5381   -1.0452 H   0  0  0  0  0  0  0  0  0  0  0  0
   -0.0477    2.1373   -1.1612 H   0  0  0  0  0  0  0  0  0  0  0  0
    0.9805    0.7383   -1.8538 H   0  0  0  0  0  0  0  0  0  0  0  0
    0.6195    1.5691    1.1709 H   0  0  0  0  0  0  0  0  0  0  0  0
    2.8091    0.2306    0.0715 H   0  0  0  0  0  0  0  0  0  0  0  0
    2.1122   -0.3683    1.5952 H   0  0  0  0  0  0  0  0  0  0  0  0
    1.6060   -2.2828    0.3475 H   0  0  0  0  0  0  0  0  0  0  0  0
    1.9637   -1.4450   -1.1720 H   0  0  0  0  0  0  0  0  0  0  0  0
  1  2  2  0
  2  3  1  0
  3  4  1  0
  4  5  1  0
  5  6  1  0
  6  7  1  0
  7  8  1  0
  8  9  1  0
  6  4  1  0
  9  4  1  0
  2 10  1  0
  3 11  1  0
  3 12  1  0
  5 13  1  0
  5 14  1  0
  6 15  1  0
  7 16  1  0
  7 17  1  0
  8 18  1  0
  8 19  1  0
M  END
