
     RDKit          3D

 19 20  0  0  0  0  0  0  0  0999 V2000
    2.8465    0.6275    1.0899 O   0  0  0  0  0  0  0  0  0  0  0  0
    2.3710   -0.2014    0.3548 C   0  0  0  0  0  0  0  0  0  0  0  0
    1.1638    0.0906   -0.4503 C   0  0  0  0  0  0  0  0  0  0  0  0
    0.7404    1.3525   -0.2196 O   0  0  0  0  0  0  0  0  0  0  0  0
   -0.5416    1.5492    0.1759 C   0  0  0  0  0  0  0  0  0  0  0  0
   -1.4294    0.3424    0.0513 C   0  0  0  0  0  0  0  0  0  0  0  0
   -0.7711   -0.7390    0.9205 C   0  0  0  0  0  0  0  0  0  0  0  0
    0.1177   -0.9789   -0.3069 C   0  0  0  0  0  0  0  0  0  0  0  0
   -1.0652   -0.5148   -1.1425 C   0  0  0  0  0  0  0  0  0  0  0  0
    2.8364   -1.1685    0.2869 H   0  0  0  0  0  0  0  0  0  0  0  0
    1.5032    0.0395   -1.5289 H   0  0  0  0  0  0  0  0  0  0  0  0
   -0.5251    1.8111    1.2705 H   0  0  0  0  0  0  0  0  0  0  0  0
   -1.0188    2.4524   -0.3063 H   0  0  0  0  0  0  0  0  0  0  0  0
   -2.4763    0.5220    0.2361 H   0  0  0  0  0  0  0  0  0  0  0  0
   -0.2251   -0.3278    1.7855 H   0  0  0  0  0  0  0  0  0  0  0  0
   -1.4454   -1.5736    1.0992 H   0  0  0  0  0  0  0  0  0  0  0  0
    0.4629   -1.9857   -0.4553 H   0  0  0  0  0  0  0  0  0  0  0  0
   -1.7813   -1.3321   -1.2618 H   0  0  0  0  0  0  0  0  0  0  0  0
   -0.7627    0.0347   -2.0441 H   0  0  0  0  0  0  0  0  0  0  0  0
  1  2  2  0
  2  3  1  0
  3  4  1  0
  4  5  1  0
  5  6  1  0
  6  7  1  0
  7  8  1  0
  8  9  1  0
  8  3  1  0
  9  6  1  0
  2 10  1  0
  3 11  1  0
  5 12  1  0
  5 13  1  0
  6 14  1  0
  7 15  1  0
  7 16  1  0
  8 17  1  0
  9 18  1  0
  9 19  1  0
M  END
