
     RDKit          3D

 19 20  0  0  0  0  0  0  0  0999 V2000
    2.9960    1.3617   -0.2835 O   0  0  0  0  0  0  0  0  0  0  0  0
    2.2723    0.4152   -0.5044 C   0  0  0  0  0  0  0  0  0  0  0  0
    0.9418    0.3544    0.0982 C   0  0  0  0  0  0  0  0  0  0  0  0
    0.5980   -1.1192    0.4082 C   0  0  0  0  0  0  0  0  0  0  0  0
   -0.9066   -1.2244    0.0754 C   0  0  0  0  0  0  0  0  0  0  0  0
   -1.2685    0.2016    0.2483 C   0  0  0  0  0  0  0  0  0  0  0  0
   -1.0032    0.5670    1.5986 O   0  0  0  0  0  0  0  0  0  0  0  0
   -1.4446    1.2842   -0.6180 C   0  0  0  0  0  0  0  0  0  0  0  0
   -0.1828    0.6947   -0.7981 C   0  0  0  0  0  0  0  0  0  0  0  0
    2.6470   -0.3598   -1.1501 H   0  0  0  0  0  0  0  0  0  0  0  0
    0.8472    0.9194    1.0483 H   0  0  0  0  0  0  0  0  0  0  0  0
    0.7834   -1.2954    1.4684 H   0  0  0  0  0  0  0  0  0  0  0  0
    1.1965   -1.7537   -0.2654 H   0  0  0  0  0  0  0  0  0  0  0  0
   -1.4173   -1.8932    0.7936 H   0  0  0  0  0  0  0  0  0  0  0  0
   -0.9574   -1.6161   -0.9373 H   0  0  0  0  0  0  0  0  0  0  0  0
   -1.3098   -0.1258    2.2033 H   0  0  0  0  0  0  0  0  0  0  0  0
   -2.2287    1.1973   -1.4255 H   0  0  0  0  0  0  0  0  0  0  0  0
   -1.4766    2.3343   -0.2273 H   0  0  0  0  0  0  0  0  0  0  0  0
   -0.0868    0.0578   -1.7328 H   0  0  0  0  0  0  0  0  0  0  0  0
  1  2  2  0
  2  3  1  0
  3  4  1  0
  4  5  1  0
  5  6  1  0
  6  7  1  0
  6  8  1  0
  8  9  1  0
  9  3  1  0
  9  6  1  0
  2 10  1  0
  3 11  1  0
  4 12  1  0
  4 13  1  0
  5 14  1  0
  5 15  1  0
  7 16  1  0
  8 17  1  0
  8 18  1  0
  9 19  1  0
M  END
