
     RDKit          3D

 17 18  0  0  0  0  0  0  0  0999 V2000
    1.3813    1.9054    1.6023 O   0  0  0  0  0  0  0  0  0  0  0  0
    1.8424    0.9116    1.0667 C   0  0  0  0  0  0  0  0  0  0  0  0
    0.9398   -0.2542    0.8596 C   0  0  0  0  0  0  0  0  0  0  0  0
    1.6749   -1.2575    0.2404 O   0  0  0  0  0  0  0  0  0  0  0  0
   -0.1744    0.1624   -0.0244 C   0  0  0  0  0  0  0  0  0  0  0  0
   -0.2062   -0.3952   -1.4368 C   0  0  0  0  0  0  0  0  0  0  0  0
   -1.2635   -0.6971   -0.4697 C   0  0  0  0  0  0  0  0  0  0  0  0
   -2.1897    0.4310   -0.0854 C   0  0  0  0  0  0  0  0  0  0  0  0
   -1.0676    1.1439    0.3357 O   0  0  0  0  0  0  0  0  0  0  0  0
    2.8840    0.9340    0.7720 H   0  0  0  0  0  0  0  0  0  0  0  0
    0.6338   -0.6228    1.8534 H   0  0  0  0  0  0  0  0  0  0  0  0
    2.2681   -0.8709   -0.4522 H   0  0  0  0  0  0  0  0  0  0  0  0
    0.5211   -1.1708   -1.6642 H   0  0  0  0  0  0  0  0  0  0  0  0
   -0.2764    0.4042   -2.1920 H   0  0  0  0  0  0  0  0  0  0  0  0
   -1.4554   -1.7147   -0.1238 H   0  0  0  0  0  0  0  0  0  0  0  0
   -2.5996    0.9068   -0.9939 H   0  0  0  0  0  0  0  0  0  0  0  0
   -2.9126    0.1838    0.7123 H   0  0  0  0  0  0  0  0  0  0  0  0
  1  2  2  0
  2  3  1  0
  3  4  1  0
  3  5  1  0
  5  6  1  0
  6  7  1  0
  7  8  1  0
  8  9  1  0
  7  5  1  0
  9  5  1  0
  2 10  1  0
  3 11  1  0
  4 12  1  0
  6 13  1  0
  6 14  1  0
  7 15  1  0
  8 16  1  0
  8 17  1  0
M  END
