
     RDKit          3D

 19 20  0  0  0  0  0  0  0  0999 V2000
    3.4299    0.5339    1.0495 O   0  0  0  0  0  0  0  0  0  0  0  0
    2.8057   -0.4863    0.6645 C   0  0  0  0  0  0  0  0  0  0  0  0
    1.4036   -0.3246    0.1928 C   0  0  0  0  0  0  0  0  0  0  0  0
    0.6110   -1.2805   -0.2417 C   0  0  0  0  0  0  0  0  0  0  0  0
   -0.7235   -0.7806   -0.6367 C   0  0  0  0  0  0  0  0  0  0  0  0
   -1.6875   -0.4623    0.4728 C   0  0  0  0  0  0  0  0  0  0  0  0
   -1.8515    0.9160   -0.1802 C   0  0  0  0  0  0  0  0  0  0  0  0
   -0.4711    0.7047   -0.7987 C   0  0  0  0  0  0  0  0  0  0  0  0
    0.6510    0.9402    0.1406 C   0  0  0  0  0  0  0  0  0  0  0  0
    3.2799   -1.4368    0.6806 H   0  0  0  0  0  0  0  0  0  0  0  0
    0.9490   -2.3260   -0.2882 H   0  0  0  0  0  0  0  0  0  0  0  0
   -1.1136   -1.3083   -1.5009 H   0  0  0  0  0  0  0  0  0  0  0  0
   -2.6367   -1.0134    0.3761 H   0  0  0  0  0  0  0  0  0  0  0  0
   -1.2501   -0.3894    1.4774 H   0  0  0  0  0  0  0  0  0  0  0  0
   -2.6221    0.9703   -0.9485 H   0  0  0  0  0  0  0  0  0  0  0  0
   -1.9000    1.7523    0.5369 H   0  0  0  0  0  0  0  0  0  0  0  0
   -0.3795    1.0651   -1.8294 H   0  0  0  0  0  0  0  0  0  0  0  0
    1.2890    1.8073   -0.1372 H   0  0  0  0  0  0  0  0  0  0  0  0
    0.2166    1.1184    1.1536 H   0  0  0  0  0  0  0  0  0  0  0  0
  1  2  2  0
  2  3  1  0
  3  4  2  0
  4  5  1  0
  5  6  1  0
  6  7  1  0
  7  8  1  0
  8  9  1  0
  9  3  1  0
  8  5  1  0
  2 10  1  0
  4 11  1  0
  5 12  1  0
  6 13  1  0
  6 14  1  0
  7 15  1  0
  7 16  1  0
  8 17  1  0
  9 18  1  0
  9 19  1  0
M  END
