
     RDKit          3D

 17 19  0  0  0  0  0  0  0  0999 V2000
    1.7303    2.5289   -0.4380 O   0  0  0  0  0  0  0  0  0  0  0  0
    1.5172    1.4222   -0.8808 C   0  0  0  0  0  0  0  0  0  0  0  0
    0.5805    0.5178   -0.2658 C   0  0  0  0  0  0  0  0  0  0  0  0
   -0.7135    0.9864    0.3650 C   0  0  0  0  0  0  0  0  0  0  0  0
   -1.1284   -0.3482    1.0005 C   0  0  0  0  0  0  0  0  0  0  0  0
   -1.0923   -1.2371   -0.2438 C   0  0  0  0  0  0  0  0  0  0  0  0
    0.3308   -0.8604   -0.6815 C   0  0  0  0  0  0  0  0  0  0  0  0
    0.9843   -0.5924    0.6366 C   0  0  0  0  0  0  0  0  0  0  0  0
    0.0172   -0.7168    1.6348 O   0  0  0  0  0  0  0  0  0  0  0  0
    2.0564    1.1241   -1.7644 H   0  0  0  0  0  0  0  0  0  0  0  0
   -0.5760    1.7735    1.1049 H   0  0  0  0  0  0  0  0  0  0  0  0
   -1.4997    1.2004   -0.3926 H   0  0  0  0  0  0  0  0  0  0  0  0
   -2.0436   -0.3313    1.5240 H   0  0  0  0  0  0  0  0  0  0  0  0
   -1.1440   -2.2939    0.0335 H   0  0  0  0  0  0  0  0  0  0  0  0
   -1.8448   -0.9062   -0.9659 H   0  0  0  0  0  0  0  0  0  0  0  0
    0.8101   -1.3911   -1.4833 H   0  0  0  0  0  0  0  0  0  0  0  0
    2.0155   -0.8759    0.8169 H   0  0  0  0  0  0  0  0  0  0  0  0
  1  2  2  0
  2  3  1  0
  3  4  1  0
  4  5  1  0
  5  6  1  0
  6  7  1  0
  7  8  1  0
  8  9  1  0
  7  3  1  0
  8  3  1  0
  9  5  1  0
  2 10  1  0
  4 11  1  0
  4 12  1  0
  5 13  1  0
  6 14  1  0
  6 15  1  0
  7 16  1  0
  8 17  1  0
M  END
