
     RDKit          3D

 15 15  0  0  0  0  0  0  0  0999 V2000
    2.8485   -1.0749   -0.5848 O   0  0  0  0  0  0  0  0  0  0  0  0
    2.2180   -0.0396   -0.5275 C   0  0  0  0  0  0  0  0  0  0  0  0
    0.7467   -0.0165   -0.5697 C   0  0  0  0  0  0  0  0  0  0  0  0
    0.1456   -0.7017    0.6535 C   0  0  0  0  0  0  0  0  0  0  0  0
   -1.2707   -0.1302    0.5745 C   0  0  0  0  0  0  0  0  0  0  0  0
   -1.8743   -0.6904   -0.5289 O   0  0  0  0  0  0  0  0  0  0  0  0
   -0.9670    1.2927    0.2437 C   0  0  0  0  0  0  0  0  0  0  0  0
   -1.6789    2.2717    0.5986 O   0  0  0  0  0  0  0  0  0  0  0  0
    0.2008    1.2608   -0.4920 O   0  0  0  0  0  0  0  0  0  0  0  0
    2.7570    0.8805   -0.4436 H   0  0  0  0  0  0  0  0  0  0  0  0
    0.3642   -0.6025   -1.4493 H   0  0  0  0  0  0  0  0  0  0  0  0
    0.0790   -1.7879    0.5064 H   0  0  0  0  0  0  0  0  0  0  0  0
    0.6383   -0.3936    1.5850 H   0  0  0  0  0  0  0  0  0  0  0  0
   -1.8116   -0.2486    1.5108 H   0  0  0  0  0  0  0  0  0  0  0  0
   -2.3957   -0.0197   -1.0765 H   0  0  0  0  0  0  0  0  0  0  0  0
  1  2  2  0
  2  3  1  0
  3  4  1  0
  4  5  1  0
  5  6  1  0
  5  7  1  0
  7  8  2  0
  7  9  1  0
  9  3  1  0
  2 10  1  0
  3 11  1  0
  4 12  1  0
  4 13  1  0
  5 14  1  0
  6 15  1  0
M  END
