
     RDKit          3D

 17 18  0  0  0  0  0  0  0  0999 V2000
    3.2933   -0.4101   -0.3025 O   0  0  0  0  0  0  0  0  0  0  0  0
    2.3365    0.1384   -0.8541 C   0  0  0  0  0  0  0  0  0  0  0  0
    1.0627    0.0233   -0.4036 C   0  0  0  0  0  0  0  0  0  0  0  0
    0.4981    0.4526    0.9108 C   0  0  0  0  0  0  0  0  0  0  0  0
   -0.6288   -0.0719    0.1106 C   0  0  0  0  0  0  0  0  0  0  0  0
   -1.9726   -0.0784    0.4134 C   0  0  0  0  0  0  0  0  0  0  0  0
   -2.4663    1.2239    0.6671 O   0  0  0  0  0  0  0  0  0  0  0  0
    0.2295   -1.2159   -0.2918 C   0  0  0  0  0  0  0  0  0  0  0  0
   -0.0568    0.6173   -0.9820 O   0  0  0  0  0  0  0  0  0  0  0  0
    2.6403    0.7233   -1.7432 H   0  0  0  0  0  0  0  0  0  0  0  0
    0.5299    1.5729    1.0009 H   0  0  0  0  0  0  0  0  0  0  0  0
    0.8207   -0.0930    1.8009 H   0  0  0  0  0  0  0  0  0  0  0  0
   -2.2375   -0.6596    1.3201 H   0  0  0  0  0  0  0  0  0  0  0  0
   -2.6230   -0.4813   -0.3957 H   0  0  0  0  0  0  0  0  0  0  0  0
   -1.8871    1.8328    0.1618 H   0  0  0  0  0  0  0  0  0  0  0  0
   -0.0969   -1.6821   -1.2433 H   0  0  0  0  0  0  0  0  0  0  0  0
    0.5580   -1.8922    0.5060 H   0  0  0  0  0  0  0  0  0  0  0  0
  1  2  2  0
  2  3  1  0
  3  4  1  0
  4  5  1  0
  5  6  1  0
  6  7  1  0
  5  8  1  0
  5  9  1  0
  8  3  1  0
  9  3  1  0
  2 10  1  0
  4 11  1  0
  4 12  1  0
  6 13  1  0
  6 14  1  0
  7 15  1  0
  8 16  1  0
  8 17  1  0
M  END
