
     RDKit          3D

 19 20  0  0  0  0  0  0  0  0999 V2000
    1.4084   -2.1834   -1.6734 O   0  0  0  0  0  0  0  0  0  0  0  0
    1.3927   -1.6996   -0.5748 C   0  0  0  0  0  0  0  0  0  0  0  0
    0.5896   -0.5437   -0.1431 C   0  0  0  0  0  0  0  0  0  0  0  0
   -0.5841   -0.8849    0.7083 C   0  0  0  0  0  0  0  0  0  0  0  0
   -1.5948    0.2014    0.5959 C   0  0  0  0  0  0  0  0  0  0  0  0
   -1.1716    1.0670   -0.5350 C   0  0  0  0  0  0  0  0  0  0  0  0
    0.1403    0.5144   -1.0498 C   0  0  0  0  0  0  0  0  0  0  0  0
    1.2752    0.7568   -0.0986 C   0  0  0  0  0  0  0  0  0  0  0  0
    1.1057    1.6288    0.9771 O   0  0  0  0  0  0  0  0  0  0  0  0
    2.0435   -2.1698    0.1780 H   0  0  0  0  0  0  0  0  0  0  0  0
   -1.0478   -1.8170    0.2672 H   0  0  0  0  0  0  0  0  0  0  0  0
   -0.3312   -1.1634    1.7502 H   0  0  0  0  0  0  0  0  0  0  0  0
   -1.7108    0.7246    1.5635 H   0  0  0  0  0  0  0  0  0  0  0  0
   -2.6218   -0.1927    0.3517 H   0  0  0  0  0  0  0  0  0  0  0  0
   -1.9155    1.2345   -1.3106 H   0  0  0  0  0  0  0  0  0  0  0  0
   -0.9287    2.0831   -0.1046 H   0  0  0  0  0  0  0  0  0  0  0  0
    0.3135    0.4492   -2.1300 H   0  0  0  0  0  0  0  0  0  0  0  0
    2.2588    0.8309   -0.5702 H   0  0  0  0  0  0  0  0  0  0  0  0
    1.3788    1.1637    1.7980 H   0  0  0  0  0  0  0  0  0  0  0  0
  1  2  2  0
  2  3  1  0
  3  4  1  0
  4  5  1  0
  5  6  1  0
  6  7  1  0
  7  8  1  0
  8  9  1  0
  7  3  1  0
  8  3  1  0
  2 10  1  0
  4 11  1  0
  4 12  1  0
  5 13  1  0
  5 14  1  0
  6 15  1  0
  6 16  1  0
  7 17  1  0
  8 18  1  0
  9 19  1  0
M  END
