
     RDKit          3D

 17 17  0  0  0  0  0  0  0  0999 V2000
    2.9659   -0.6272   -0.1765 O   0  0  0  0  0  0  0  0  0  0  0  0
    2.3154    0.4084   -0.1028 C   0  0  0  0  0  0  0  0  0  0  0  0
    1.0467    0.3686    0.6400 C   0  0  0  0  0  0  0  0  0  0  0  0
    0.0953   -0.6888    0.1381 C   0  0  0  0  0  0  0  0  0  0  0  0
   -0.2450   -0.4019   -1.3377 C   0  0  0  0  0  0  0  0  0  0  0  0
   -0.9016    0.8055   -1.2063 O   0  0  0  0  0  0  0  0  0  0  0  0
   -1.9023    0.5021   -0.2509 C   0  0  0  0  0  0  0  0  0  0  0  0
   -1.2396   -0.4040    0.7242 C   0  0  0  0  0  0  0  0  0  0  0  0
   -1.6738   -0.8187    1.7522 O   0  0  0  0  0  0  0  0  0  0  0  0
    2.6793    1.2857   -0.5661 H   0  0  0  0  0  0  0  0  0  0  0  0
    0.5273    1.3401    0.6899 H   0  0  0  0  0  0  0  0  0  0  0  0
    1.2476    0.1021    1.7124 H   0  0  0  0  0  0  0  0  0  0  0  0
    0.4466   -1.7119    0.2690 H   0  0  0  0  0  0  0  0  0  0  0  0
   -1.0027   -1.1600   -1.6364 H   0  0  0  0  0  0  0  0  0  0  0  0
    0.6410   -0.3668   -1.9747 H   0  0  0  0  0  0  0  0  0  0  0  0
   -2.3127    1.4284    0.1968 H   0  0  0  0  0  0  0  0  0  0  0  0
   -2.6874   -0.0616   -0.8160 H   0  0  0  0  0  0  0  0  0  0  0  0
  1  2  2  0
  2  3  1  0
  3  4  1  0
  4  5  1  0
  5  6  1  0
  6  7  1  0
  7  8  1  0
  8  9  2  0
  8  4  1  0
  2 10  1  0
  3 11  1  0
  3 12  1  0
  4 13  1  0
  5 14  1  0
  5 15  1  0
  7 16  1  0
  7 17  1  0
M  END
