
     RDKit          3D

 17 17  0  0  0  0  0  0  0  0999 V2000
    2.9938    0.4396    1.4042 O   0  0  0  0  0  0  0  0  0  0  0  0
    2.4095    0.1412    0.3511 C   0  0  0  0  0  0  0  0  0  0  0  0
    0.9622    0.2693    0.1370 C   0  0  0  0  0  0  0  0  0  0  0  0
    0.1510    0.7252    1.0773 C   0  0  0  0  0  0  0  0  0  0  0  0
   -1.3016    0.8233    0.7781 C   0  0  0  0  0  0  0  0  0  0  0  0
   -1.6876   -0.4549    0.1492 C   0  0  0  0  0  0  0  0  0  0  0  0
   -2.7228   -0.9765    0.4658 O   0  0  0  0  0  0  0  0  0  0  0  0
   -0.8044   -1.0758   -0.8556 C   0  0  0  0  0  0  0  0  0  0  0  0
    0.3412   -0.1141   -1.1656 C   0  0  0  0  0  0  0  0  0  0  0  0
    2.9906   -0.2387   -0.4695 H   0  0  0  0  0  0  0  0  0  0  0  0
    0.5918    1.0038    2.0195 H   0  0  0  0  0  0  0  0  0  0  0  0
   -1.4358    1.6940    0.1077 H   0  0  0  0  0  0  0  0  0  0  0  0
   -1.8748    0.9643    1.7330 H   0  0  0  0  0  0  0  0  0  0  0  0
   -1.3554   -1.3407   -1.7686 H   0  0  0  0  0  0  0  0  0  0  0  0
   -0.3319   -2.0244   -0.4730 H   0  0  0  0  0  0  0  0  0  0  0  0
    1.1255   -0.6041   -1.7740 H   0  0  0  0  0  0  0  0  0  0  0  0
   -0.0513    0.7686   -1.7167 H   0  0  0  0  0  0  0  0  0  0  0  0
  1  2  2  0
  2  3  1  0
  3  4  2  0
  4  5  1  0
  5  6  1  0
  6  7  2  0
  6  8  1  0
  8  9  1  0
  9  3  1  0
  2 10  1  0
  4 11  1  0
  5 12  1  0
  5 13  1  0
  8 14  1  0
  8 15  1  0
  9 16  1  0
  9 17  1  0
M  END
