
     RDKit          3D

 17 18  0  0  0  0  0  0  0  0999 V2000
    2.7320   -0.1673    1.1864 O   0  0  0  0  0  0  0  0  0  0  0  0
    1.6964   -0.7197    0.8612 C   0  0  0  0  0  0  0  0  0  0  0  0
    1.2857   -0.6918   -0.5639 C   0  0  0  0  0  0  0  0  0  0  0  0
    0.0804   -1.3770   -0.7209 O   0  0  0  0  0  0  0  0  0  0  0  0
   -0.5597   -0.2102   -0.3919 C   0  0  0  0  0  0  0  0  0  0  0  0
   -1.9657    0.0556   -0.5082 C   0  0  0  0  0  0  0  0  0  0  0  0
   -1.2585   -0.0598    0.8757 C   0  0  0  0  0  0  0  0  0  0  0  0
    0.5570    0.6265   -0.8668 C   0  0  0  0  0  0  0  0  0  0  0  0
    1.0268    1.6189   -0.0484 O   0  0  0  0  0  0  0  0  0  0  0  0
    1.1105   -1.2147    1.6362 H   0  0  0  0  0  0  0  0  0  0  0  0
    2.0531   -0.9578   -1.3012 H   0  0  0  0  0  0  0  0  0  0  0  0
   -2.6419   -0.8168   -0.7373 H   0  0  0  0  0  0  0  0  0  0  0  0
   -2.3802    1.0330   -0.7635 H   0  0  0  0  0  0  0  0  0  0  0  0
   -1.4656   -0.9788    1.4550 H   0  0  0  0  0  0  0  0  0  0  0  0
   -1.1955    0.8716    1.4675 H   0  0  0  0  0  0  0  0  0  0  0  0
    0.5725    0.8070   -1.9497 H   0  0  0  0  0  0  0  0  0  0  0  0
    0.3525    2.1813    0.3699 H   0  0  0  0  0  0  0  0  0  0  0  0
  1  2  2  0
  2  3  1  0
  3  4  1  0
  4  5  1  0
  5  6  1  0
  6  7  1  0
  5  8  1  0
  8  9  1  0
  8  3  1  0
  7  5  1  0
  2 10  1  0
  3 11  1  0
  6 12  1  0
  6 13  1  0
  7 14  1  0
  7 15  1  0
  8 16  1  0
  9 17  1  0
M  END
