
     RDKit          3D

 18 19  0  0  0  0  0  0  0  0999 V2000
    2.0005    1.1764    0.8647 O   0  0  0  0  0  0  0  0  0  0  0  0
    2.2877   -0.0002    0.9046 C   0  0  0  0  0  0  0  0  0  0  0  0
    1.2344   -0.9943    0.6196 C   0  0  0  0  0  0  0  0  0  0  0  0
    0.5115   -0.5641   -0.6123 C   0  0  0  0  0  0  0  0  0  0  0  0
   -0.2062    0.6805   -0.8170 C   0  0  0  0  0  0  0  0  0  0  0  0
   -1.1550    1.3080    0.1385 C   0  0  0  0  0  0  0  0  0  0  0  0
   -1.6632   -0.0389    0.6051 C   0  0  0  0  0  0  0  0  0  0  0  0
   -0.9660   -0.6597   -0.5606 C   0  0  0  0  0  0  0  0  0  0  0  0
    3.2835   -0.3356    1.1439 H   0  0  0  0  0  0  0  0  0  0  0  0
    1.7274   -1.9840    0.4062 H   0  0  0  0  0  0  0  0  0  0  0  0
    0.5933   -1.0739    1.5290 H   0  0  0  0  0  0  0  0  0  0  0  0
    1.0269   -0.9437   -1.5523 H   0  0  0  0  0  0  0  0  0  0  0  0
   -0.2861    1.0880   -1.8533 H   0  0  0  0  0  0  0  0  0  0  0  0
   -2.0235    1.8237   -0.3642 H   0  0  0  0  0  0  0  0  0  0  0  0
   -0.7588    1.9849    0.9121 H   0  0  0  0  0  0  0  0  0  0  0  0
   -1.2822   -0.2926    1.6140 H   0  0  0  0  0  0  0  0  0  0  0  0
   -2.7751   -0.1472    0.6442 H   0  0  0  0  0  0  0  0  0  0  0  0
   -1.5490   -1.0271   -1.4272 H   0  0  0  0  0  0  0  0  0  0  0  0
  1  2  2  0
  2  3  1  0
  3  4  1  0
  4  5  1  0
  5  6  1  0
  6  7  1  0
  7  8  1  0
  8  4  1  0
  8  5  1  0
  2  9  1  0
  3 10  1  0
  3 11  1  0
  4 12  1  0
  5 13  1  0
  6 14  1  0
  6 15  1  0
  7 16  1  0
  7 17  1  0
  8 18  1  0
M  END
