
     RDKit          3D

 15 15  0  0  0  0  0  0  0  0999 V2000
    2.8292    0.7322    1.3130 O   0  0  0  0  0  0  0  0  0  0  0  0
    2.0570    0.7242    0.3678 C   0  0  0  0  0  0  0  0  0  0  0  0
    0.8308   -0.1314    0.3654 C   0  0  0  0  0  0  0  0  0  0  0  0
    0.5288   -0.7969   -0.9367 C   0  0  0  0  0  0  0  0  0  0  0  0
   -0.3241    0.3764   -0.4014 C   0  0  0  0  0  0  0  0  0  0  0  0
   -1.7328   -0.0158   -0.0637 C   0  0  0  0  0  0  0  0  0  0  0  0
   -2.0852    0.3545    1.2351 O   0  0  0  0  0  0  0  0  0  0  0  0
    2.3150    1.3718   -0.4628 H   0  0  0  0  0  0  0  0  0  0  0  0
    0.7028   -0.7377    1.2839 H   0  0  0  0  0  0  0  0  0  0  0  0
    0.1070   -1.7980   -0.8860 H   0  0  0  0  0  0  0  0  0  0  0  0
    1.1069   -0.5498   -1.8500 H   0  0  0  0  0  0  0  0  0  0  0  0
   -0.2050    1.3482   -0.9217 H   0  0  0  0  0  0  0  0  0  0  0  0
   -1.9181   -1.0994   -0.2021 H   0  0  0  0  0  0  0  0  0  0  0  0
   -2.4303    0.5178   -0.7426 H   0  0  0  0  0  0  0  0  0  0  0  0
   -1.7821   -0.2960    1.9018 H   0  0  0  0  0  0  0  0  0  0  0  0
  1  2  2  0
  2  3  1  0
  3  4  1  0
  4  5  1  0
  5  6  1  0
  6  7  1  0
  5  3  1  0
  2  8  1  0
  3  9  1  0
  4 10  1  0
  4 11  1  0
  5 12  1  0
  6 13  1  0
  6 14  1  0
  7 15  1  0
M  END
