
     RDKit          3D

 21 22  0  0  0  0  0  0  0  0999 V2000
    3.5026   -0.5173   -0.2066 O   0  0  0  0  0  0  0  0  0  0  0  0
    2.5922   -0.1499    0.4960 C   0  0  0  0  0  0  0  0  0  0  0  0
    1.2608    0.0595   -0.0710 C   0  0  0  0  0  0  0  0  0  0  0  0
    0.4249    1.0572    0.7445 C   0  0  0  0  0  0  0  0  0  0  0  0
   -0.7154    1.4266   -0.1616 C   0  0  0  0  0  0  0  0  0  0  0  0
   -1.3703    0.2961   -0.8414 C   0  0  0  0  0  0  0  0  0  0  0  0
   -2.0828   -0.6668    0.0874 C   0  0  0  0  0  0  0  0  0  0  0  0
   -0.8669   -1.0389   -0.6727 C   0  0  0  0  0  0  0  0  0  0  0  0
    0.4563   -1.2325   -0.0244 C   0  0  0  0  0  0  0  0  0  0  0  0
    2.7663    0.0225    1.5417 H   0  0  0  0  0  0  0  0  0  0  0  0
    1.2794    0.3938   -1.1360 H   0  0  0  0  0  0  0  0  0  0  0  0
    0.0834    0.5877    1.6891 H   0  0  0  0  0  0  0  0  0  0  0  0
    1.0180    1.9369    1.0018 H   0  0  0  0  0  0  0  0  0  0  0  0
   -1.4899    1.9901    0.4267 H   0  0  0  0  0  0  0  0  0  0  0  0
   -0.2801    2.1052   -0.9520 H   0  0  0  0  0  0  0  0  0  0  0  0
   -1.8740    0.5574   -1.8107 H   0  0  0  0  0  0  0  0  0  0  0  0
   -3.0789   -0.9767   -0.2686 H   0  0  0  0  0  0  0  0  0  0  0  0
   -2.0470   -0.4900    1.1808 H   0  0  0  0  0  0  0  0  0  0  0  0
   -1.0661   -1.7739   -1.5024 H   0  0  0  0  0  0  0  0  0  0  0  0
    0.3920   -1.5898    1.0284 H   0  0  0  0  0  0  0  0  0  0  0  0
    1.0954   -1.9971   -0.5489 H   0  0  0  0  0  0  0  0  0  0  0  0
  1  2  2  0
  2  3  1  0
  3  4  1  0
  4  5  1  0
  5  6  1  0
  6  7  1  0
  7  8  1  0
  8  9  1  0
  9  3  1  0
  8  6  1  0
  2 10  1  0
  3 11  1  0
  4 12  1  0
  4 13  1  0
  5 14  1  0
  5 15  1  0
  6 16  1  0
  7 17  1  0
  7 18  1  0
  8 19  1  0
  9 20  1  0
  9 21  1  0
M  END
