
     RDKit          3D

 17 19  0  0  0  0  0  0  0  0999 V2000
   -3.0228   -0.4007    1.1894 O   0  0  0  0  0  0  0  0  0  0  0  0
   -2.4289    0.3991    0.4846 C   0  0  0  0  0  0  0  0  0  0  0  0
   -1.3654   -0.0773   -0.3914 C   0  0  0  0  0  0  0  0  0  0  0  0
   -0.1338    0.7218   -0.4949 C   0  0  0  0  0  0  0  0  0  0  0  0
    1.0586    1.2656   -0.5133 C   0  0  0  0  0  0  0  0  0  0  0  0
    1.9895    0.1969    0.0322 C   0  0  0  0  0  0  0  0  0  0  0  0
    1.0002   -0.7466    0.7346 C   0  0  0  0  0  0  0  0  0  0  0  0
    0.3842   -0.8055   -0.6194 C   0  0  0  0  0  0  0  0  0  0  0  0
   -0.4264   -1.0715    0.3832 C   0  0  0  0  0  0  0  0  0  0  0  0
   -2.6980    1.4439    0.5194 H   0  0  0  0  0  0  0  0  0  0  0  0
   -1.6518   -0.4816   -1.3804 H   0  0  0  0  0  0  0  0  0  0  0  0
    1.2978    2.2668   -0.8492 H   0  0  0  0  0  0  0  0  0  0  0  0
    2.5342   -0.2856   -0.7959 H   0  0  0  0  0  0  0  0  0  0  0  0
    2.7079    0.6450    0.6888 H   0  0  0  0  0  0  0  0  0  0  0  0
    0.7192   -0.1023    1.5924 H   0  0  0  0  0  0  0  0  0  0  0  0
    0.8807   -1.0697   -1.4880 H   0  0  0  0  0  0  0  0  0  0  0  0
   -0.8453   -1.8983    0.9079 H   0  0  0  0  0  0  0  0  0  0  0  0
  1  2  2  0
  2  3  1  0
  3  4  1  0
  4  5  2  0
  5  6  1  0
  6  7  1  0
  7  8  1  0
  8  9  1  0
  9  3  1  0
  8  4  1  0
  9  7  1  0
  2 10  1  0
  3 11  1  0
  5 12  1  0
  6 13  1  0
  6 14  1  0
  7 15  1  0
  8 16  1  0
  9 17  1  0
M  END
