
     RDKit          3D

 15 16  0  0  0  0  0  0  0  0999 V2000
    1.9343   -1.0974    1.8373 O   0  0  0  0  0  0  0  0  0  0  0  0
    2.0363   -0.2723    0.9523 C   0  0  0  0  0  0  0  0  0  0  0  0
    0.9168    0.5662    0.5862 C   0  0  0  0  0  0  0  0  0  0  0  0
   -0.2486    0.3073    1.3581 O   0  0  0  0  0  0  0  0  0  0  0  0
   -0.9032   -0.5512    0.5218 C   0  0  0  0  0  0  0  0  0  0  0  0
   -1.9734   -0.4454   -0.3819 C   0  0  0  0  0  0  0  0  0  0  0  0
   -0.9573    0.4817   -0.6825 C   0  0  0  0  0  0  0  0  0  0  0  0
    0.4841    0.4334   -0.8395 C   0  0  0  0  0  0  0  0  0  0  0  0
    1.2041    0.3233   -1.7790 O   0  0  0  0  0  0  0  0  0  0  0  0
    2.9800   -0.1708    0.4374 H   0  0  0  0  0  0  0  0  0  0  0  0
    1.1041    1.6611    0.7386 H   0  0  0  0  0  0  0  0  0  0  0  0
   -0.2319   -1.4500    0.3543 H   0  0  0  0  0  0  0  0  0  0  0  0
   -2.9579   -0.0793    0.0398 H   0  0  0  0  0  0  0  0  0  0  0  0
   -2.1887   -1.2588   -1.1049 H   0  0  0  0  0  0  0  0  0  0  0  0
   -1.1988    1.5524   -0.3706 H   0  0  0  0  0  0  0  0  0  0  0  0
  1  2  2  0
  2  3  1  0
  3  4  1  0
  4  5  1  0
  5  6  1  0
  6  7  1  0
  7  8  1  0
  8  9  2  0
  8  3  1  0
  7  5  1  0
  2 10  1  0
  3 11  1  0
  5 12  1  0
  6 13  1  0
  6 14  1  0
  7 15  1  0
M  END
