
     RDKit          3D

 17 17  0  0  0  0  0  0  0  0999 V2000
    2.1433   -1.6042    0.3842 O   0  0  0  0  0  0  0  0  0  0  0  0
    2.0033   -0.4378    0.6898 C   0  0  0  0  0  0  0  0  0  0  0  0
    1.3883    0.4825   -0.2663 C   0  0  0  0  0  0  0  0  0  0  0  0
   -0.1007    0.3817   -0.3446 C   0  0  0  0  0  0  0  0  0  0  0  0
   -0.6642    1.2739   -1.2710 O   0  0  0  0  0  0  0  0  0  0  0  0
   -0.6876   -0.9948   -0.5743 C   0  0  0  0  0  0  0  0  0  0  0  0
   -1.8611   -0.3943    0.2189 C   0  0  0  0  0  0  0  0  0  0  0  0
   -0.8237    0.3630    0.9437 C   0  0  0  0  0  0  0  0  0  0  0  0
   -0.6157    0.7843    2.0383 O   0  0  0  0  0  0  0  0  0  0  0  0
    2.3346   -0.1004    1.6601 H   0  0  0  0  0  0  0  0  0  0  0  0
    1.6011    1.5398    0.0787 H   0  0  0  0  0  0  0  0  0  0  0  0
    1.7950    0.4366   -1.2957 H   0  0  0  0  0  0  0  0  0  0  0  0
   -0.4197    2.1808   -0.9592 H   0  0  0  0  0  0  0  0  0  0  0  0
   -0.1969   -1.8174   -0.0057 H   0  0  0  0  0  0  0  0  0  0  0  0
   -0.9958   -1.2134   -1.6022 H   0  0  0  0  0  0  0  0  0  0  0  0
   -2.4534    0.2406   -0.4968 H   0  0  0  0  0  0  0  0  0  0  0  0
   -2.4467   -1.1210    0.8022 H   0  0  0  0  0  0  0  0  0  0  0  0
  1  2  2  0
  2  3  1  0
  3  4  1  0
  4  5  1  0
  4  6  1  0
  6  7  1  0
  7  8  1  0
  8  9  2  0
  8  4  1  0
  2 10  1  0
  3 11  1  0
  3 12  1  0
  5 13  1  0
  6 14  1  0
  6 15  1  0
  7 16  1  0
  7 17  1  0
M  END
