
     RDKit          3D

 15 14  0  0  0  0  0  0  0  0999 V2000
    3.8441   -0.5210   -0.7202 O   0  0  0  0  0  0  0  0  0  0  0  0
    3.2231   -0.1335    0.3009 C   0  0  0  0  0  0  0  0  0  0  0  0
    1.7798   -0.0035    0.3143 C   0  0  0  0  0  0  0  0  0  0  0  0
    1.2324    0.3862    1.3614 O   0  0  0  0  0  0  0  0  0  0  0  0
    1.0190   -0.3303   -0.8890 C   0  0  0  0  0  0  0  0  0  0  0  0
   -0.3901   -0.1227   -0.6289 C   0  0  0  0  0  0  0  0  0  0  0  0
   -1.5800    0.0732   -0.4152 C   0  0  0  0  0  0  0  0  0  0  0  0
   -2.9998    0.2960   -0.1371 C   0  0  0  0  0  0  0  0  0  0  0  0
   -3.1283    0.5982    1.2101 O   0  0  0  0  0  0  0  0  0  0  0  0
    3.8514    0.0955    1.1691 H   0  0  0  0  0  0  0  0  0  0  0  0
    1.2372   -1.3917   -1.2013 H   0  0  0  0  0  0  0  0  0  0  0  0
    1.3797    0.2956   -1.7314 H   0  0  0  0  0  0  0  0  0  0  0  0
   -3.6260   -0.5647   -0.4028 H   0  0  0  0  0  0  0  0  0  0  0  0
   -3.3865    1.1832   -0.7147 H   0  0  0  0  0  0  0  0  0  0  0  0
   -2.4561    0.1396    1.7706 H   0  0  0  0  0  0  0  0  0  0  0  0
  1  2  2  0
  2  3  1  0
  3  4  2  0
  3  5  1  0
  5  6  1  0
  6  7  3  0
  7  8  1  0
  8  9  1  0
  2 10  1  0
  5 11  1  0
  5 12  1  0
  8 13  1  0
  8 14  1  0
  9 15  1  0
M  END
