
     RDKit          3D

 19 19  0  0  0  0  0  0  0  0999 V2000
    2.7887    1.3912   -1.0717 O   0  0  0  0  0  0  0  0  0  0  0  0
    2.7100    0.3005   -0.5048 C   0  0  0  0  0  0  0  0  0  0  0  0
    1.4264   -0.3770   -0.2669 C   0  0  0  0  0  0  0  0  0  0  0  0
    1.6450   -1.5686    0.3806 O   0  0  0  0  0  0  0  0  0  0  0  0
    0.4458    0.5134    0.4966 C   0  0  0  0  0  0  0  0  0  0  0  0
   -0.8372   -0.2621    0.6937 C   0  0  0  0  0  0  0  0  0  0  0  0
   -1.4927   -0.6826   -0.6054 C   0  0  0  0  0  0  0  0  0  0  0  0
   -2.1351    0.3713    0.2137 C   0  0  0  0  0  0  0  0  0  0  0  0
   -2.0116    1.7014   -0.1196 O   0  0  0  0  0  0  0  0  0  0  0  0
    3.6341   -0.1333   -0.1908 H   0  0  0  0  0  0  0  0  0  0  0  0
    0.9426   -0.5417   -1.2728 H   0  0  0  0  0  0  0  0  0  0  0  0
    1.1381   -2.3105   -0.0160 H   0  0  0  0  0  0  0  0  0  0  0  0
    0.9118    0.7355    1.4844 H   0  0  0  0  0  0  0  0  0  0  0  0
    0.2941    1.4451   -0.0650 H   0  0  0  0  0  0  0  0  0  0  0  0
   -0.9578   -0.8978    1.5795 H   0  0  0  0  0  0  0  0  0  0  0  0
   -1.9222   -1.6942   -0.5792 H   0  0  0  0  0  0  0  0  0  0  0  0
   -1.0703   -0.3733   -1.5603 H   0  0  0  0  0  0  0  0  0  0  0  0
   -3.0684    0.1256    0.7520 H   0  0  0  0  0  0  0  0  0  0  0  0
   -2.4412    2.2574    0.5722 H   0  0  0  0  0  0  0  0  0  0  0  0
  1  2  2  0
  2  3  1  0
  3  4  1  0
  3  5  1  0
  5  6  1  0
  6  7  1  0
  7  8  1  0
  8  9  1  0
  8  6  1  0
  2 10  1  0
  3 11  1  0
  4 12  1  0
  5 13  1  0
  5 14  1  0
  6 15  1  0
  7 16  1  0
  7 17  1  0
  8 18  1  0
  9 19  1  0
M  END
