
     RDKit          3D

 15 17  0  0  0  0  0  0  0  0999 V2000
    3.2612    0.5455    0.1683 O   0  0  0  0  0  0  0  0  0  0  0  0
    2.3676   -0.3137    0.3709 C   0  0  0  0  0  0  0  0  0  0  0  0
    0.9513   -0.0576    0.1725 C   0  0  0  0  0  0  0  0  0  0  0  0
    0.4921    1.1295   -0.2463 C   0  0  0  0  0  0  0  0  0  0  0  0
   -1.0022    1.0326   -0.3378 C   0  0  0  0  0  0  0  0  0  0  0  0
   -1.4652   -0.2696   -0.9078 C   0  0  0  0  0  0  0  0  0  0  0  0
   -0.6963   -1.4105   -0.8316 O   0  0  0  0  0  0  0  0  0  0  0  0
   -0.1573   -1.0029    0.3847 C   0  0  0  0  0  0  0  0  0  0  0  0
   -1.3301   -0.0787    0.5313 C   0  0  0  0  0  0  0  0  0  0  0  0
    2.6605   -1.2946    0.7098 H   0  0  0  0  0  0  0  0  0  0  0  0
    1.0762    1.9894   -0.4745 H   0  0  0  0  0  0  0  0  0  0  0  0
   -1.5910    1.9090   -0.5378 H   0  0  0  0  0  0  0  0  0  0  0  0
   -2.4334   -0.2656   -1.4414 H   0  0  0  0  0  0  0  0  0  0  0  0
   -0.0528   -1.7516    1.1574 H   0  0  0  0  0  0  0  0  0  0  0  0
   -2.0806   -0.1613    1.2823 H   0  0  0  0  0  0  0  0  0  0  0  0
  1  2  2  0
  2  3  1  0
  3  4  2  0
  4  5  1  0
  5  6  1  0
  6  7  1  0
  7  8  1  0
  8  9  1  0
  8  3  1  0
  9  5  1  0
  9  6  1  0
  2 10  1  0
  4 11  1  0
  5 12  1  0
  6 13  1  0
  8 14  1  0
  9 15  1  0
M  END
