
     RDKit          3D

 19 19  0  0  0  0  0  0  0  0999 V2000
    2.5902    1.2535    0.6243 O   0  0  0  0  0  0  0  0  0  0  0  0
    2.2492    0.8516   -0.4763 C   0  0  0  0  0  0  0  0  0  0  0  0
    1.5639   -0.4625   -0.5343 C   0  0  0  0  0  0  0  0  0  0  0  0
    0.1870   -0.3797   -1.1315 C   0  0  0  0  0  0  0  0  0  0  0  0
   -0.6968   -0.5584    0.0755 C   0  0  0  0  0  0  0  0  0  0  0  0
   -1.7339    0.5377    0.0460 C   0  0  0  0  0  0  0  0  0  0  0  0
   -2.6059    0.4626    1.1247 O   0  0  0  0  0  0  0  0  0  0  0  0
    0.2499   -0.4478    1.2276 C   0  0  0  0  0  0  0  0  0  0  0  0
    1.4261   -1.0270    0.7302 O   0  0  0  0  0  0  0  0  0  0  0  0
    2.4432    1.4367   -1.3654 H   0  0  0  0  0  0  0  0  0  0  0  0
    2.1838   -1.1555   -1.1667 H   0  0  0  0  0  0  0  0  0  0  0  0
   -0.0110    0.5530   -1.6774 H   0  0  0  0  0  0  0  0  0  0  0  0
    0.0321   -1.2107   -1.8442 H   0  0  0  0  0  0  0  0  0  0  0  0
   -1.1949   -1.5281    0.0879 H   0  0  0  0  0  0  0  0  0  0  0  0
   -1.2707    1.5443    0.0210 H   0  0  0  0  0  0  0  0  0  0  0  0
   -2.3194    0.4070   -0.8879 H   0  0  0  0  0  0  0  0  0  0  0  0
   -3.4807    0.1477    0.8440 H   0  0  0  0  0  0  0  0  0  0  0  0
   -0.1213   -1.0207    2.0921 H   0  0  0  0  0  0  0  0  0  0  0  0
    0.5092    0.5962    1.4886 H   0  0  0  0  0  0  0  0  0  0  0  0
  1  2  2  0
  2  3  1  0
  3  4  1  0
  4  5  1  0
  5  6  1  0
  6  7  1  0
  5  8  1  0
  8  9  1  0
  9  3  1  0
  2 10  1  0
  3 11  1  0
  4 12  1  0
  4 13  1  0
  5 14  1  0
  6 15  1  0
  6 16  1  0
  7 17  1  0
  8 18  1  0
  8 19  1  0
M  END
