
     RDKit          3D

 18 18  0  0  0  0  0  0  0  0999 V2000
    2.5409    0.8685   -1.0494 O   0  0  0  0  0  0  0  0  0  0  0  0
    2.2452    0.2438   -0.0498 C   0  0  0  0  0  0  0  0  0  0  0  0
    0.8481    0.0096    0.3151 C   0  0  0  0  0  0  0  0  0  0  0  0
    0.2358   -1.1828   -0.4250 C   0  0  0  0  0  0  0  0  0  0  0  0
   -1.1513   -1.3398    0.2128 C   0  0  0  0  0  0  0  0  0  0  0  0
   -1.9286   -0.2846   -0.1589 O   0  0  0  0  0  0  0  0  0  0  0  0
   -1.4706    0.9569    0.1254 C   0  0  0  0  0  0  0  0  0  0  0  0
   -0.0167    1.1935   -0.0889 C   0  0  0  0  0  0  0  0  0  0  0  0
    3.0158   -0.1723    0.6238 H   0  0  0  0  0  0  0  0  0  0  0  0
    0.6996   -0.1151    1.4166 H   0  0  0  0  0  0  0  0  0  0  0  0
    0.8349   -2.0799   -0.3581 H   0  0  0  0  0  0  0  0  0  0  0  0
    0.0447   -0.8305   -1.4590 H   0  0  0  0  0  0  0  0  0  0  0  0
   -1.5790   -2.2633   -0.2656 H   0  0  0  0  0  0  0  0  0  0  0  0
   -1.0000   -1.4736    1.2862 H   0  0  0  0  0  0  0  0  0  0  0  0
   -1.7537    1.3178    1.1587 H   0  0  0  0  0  0  0  0  0  0  0  0
   -2.0161    1.6772   -0.5561 H   0  0  0  0  0  0  0  0  0  0  0  0
    0.1749    1.3546   -1.1750 H   0  0  0  0  0  0  0  0  0  0  0  0
    0.2761    2.1199    0.4471 H   0  0  0  0  0  0  0  0  0  0  0  0
  1  2  2  0
  2  3  1  0
  3  4  1  0
  4  5  1  0
  5  6  1  0
  6  7  1  0
  7  8  1  0
  8  3  1  0
  2  9  1  0
  3 10  1  0
  4 11  1  0
  4 12  1  0
  5 13  1  0
  5 14  1  0
  7 15  1  0
  7 16  1  0
  8 17  1  0
  8 18  1  0
M  END
