
     RDKit          3D

 19 19  0  0  0  0  0  0  0  0999 V2000
   -2.2882   -1.6006    1.3720 O   0  0  0  0  0  0  0  0  0  0  0  0
   -1.1981   -1.0526    1.2827 C   0  0  0  0  0  0  0  0  0  0  0  0
   -0.9493    0.1108    0.4009 C   0  0  0  0  0  0  0  0  0  0  0  0
    0.3405    0.5914    0.4092 O   0  0  0  0  0  0  0  0  0  0  0  0
    1.1766   -0.4220   -0.0418 C   0  0  0  0  0  0  0  0  0  0  0  0
    2.6084    0.0745   -0.0522 C   0  0  0  0  0  0  0  0  0  0  0  0
    2.6868    1.1703   -0.9028 O   0  0  0  0  0  0  0  0  0  0  0  0
   -2.1137    1.0064    0.2108 C   0  0  0  0  0  0  0  0  0  0  0  0
   -1.6078    0.1739   -0.9325 C   0  0  0  0  0  0  0  0  0  0  0  0
   -0.3918   -1.4427    1.8773 H   0  0  0  0  0  0  0  0  0  0  0  0
    1.1380   -1.3203    0.5994 H   0  0  0  0  0  0  0  0  0  0  0  0
    0.9085   -0.7610   -1.0661 H   0  0  0  0  0  0  0  0  0  0  0  0
    3.2467   -0.7707   -0.4040 H   0  0  0  0  0  0  0  0  0  0  0  0
    2.9118    0.3188    0.9793 H   0  0  0  0  0  0  0  0  0  0  0  0
    1.9285    1.1315   -1.5375 H   0  0  0  0  0  0  0  0  0  0  0  0
   -3.0922    0.6870    0.5985 H   0  0  0  0  0  0  0  0  0  0  0  0
   -1.9933    2.1070    0.1901 H   0  0  0  0  0  0  0  0  0  0  0  0
   -2.1637   -0.7387   -1.2359 H   0  0  0  0  0  0  0  0  0  0  0  0
   -1.1477    0.7369   -1.7474 H   0  0  0  0  0  0  0  0  0  0  0  0
  1  2  2  0
  2  3  1  0
  3  4  1  0
  4  5  1  0
  5  6  1  0
  6  7  1  0
  3  8  1  0
  8  9  1  0
  9  3  1  0
  2 10  1  0
  5 11  1  0
  5 12  1  0
  6 13  1  0
  6 14  1  0
  7 15  1  0
  8 16  1  0
  8 17  1  0
  9 18  1  0
  9 19  1  0
M  END
