
     RDKit          3D

 17 18  0  0  0  0  0  0  0  0999 V2000
    0.5911    1.8907    1.2083 O   0  0  0  0  0  0  0  0  0  0  0  0
    0.8513    1.5365    0.0706 C   0  0  0  0  0  0  0  0  0  0  0  0
    0.8183    0.1417   -0.3461 C   0  0  0  0  0  0  0  0  0  0  0  0
    1.7244   -0.8910    0.2582 C   0  0  0  0  0  0  0  0  0  0  0  0
    0.6179   -1.6648    0.5662 O   0  0  0  0  0  0  0  0  0  0  0  0
   -0.2668   -0.7922   -0.0134 C   0  0  0  0  0  0  0  0  0  0  0  0
   -1.5019   -0.3523    0.7315 C   0  0  0  0  0  0  0  0  0  0  0  0
   -2.2338    0.5175   -0.0433 O   0  0  0  0  0  0  0  0  0  0  0  0
   -0.1197   -0.3575   -1.3994 C   0  0  0  0  0  0  0  0  0  0  0  0
    1.1140    2.3203   -0.6332 H   0  0  0  0  0  0  0  0  0  0  0  0
    2.2416   -0.5033    1.1480 H   0  0  0  0  0  0  0  0  0  0  0  0
    2.3535   -1.3664   -0.5125 H   0  0  0  0  0  0  0  0  0  0  0  0
   -1.2660    0.0443    1.7441 H   0  0  0  0  0  0  0  0  0  0  0  0
   -2.1218   -1.2599    0.8903 H   0  0  0  0  0  0  0  0  0  0  0  0
   -2.2877    1.4276    0.3062 H   0  0  0  0  0  0  0  0  0  0  0  0
    0.3918   -1.0018   -2.1705 H   0  0  0  0  0  0  0  0  0  0  0  0
   -0.9061    0.3107   -1.8051 H   0  0  0  0  0  0  0  0  0  0  0  0
  1  2  2  0
  2  3  1  0
  3  4  1  0
  4  5  1  0
  5  6  1  0
  6  7  1  0
  7  8  1  0
  6  9  1  0
  6  3  1  0
  9  3  1  0
  2 10  1  0
  4 11  1  0
  4 12  1  0
  7 13  1  0
  7 14  1  0
  8 15  1  0
  9 16  1  0
  9 17  1  0
M  END
