
     RDKit          3D

 15 15  0  0  0  0  0  0  0  0999 V2000
    3.9754    0.9241    0.8193 O   0  0  0  0  0  0  0  0  0  0  0  0
    3.4018    0.1413    0.0218 C   0  0  0  0  0  0  0  0  0  0  0  0
    1.9822    0.0180   -0.0656 C   0  0  0  0  0  0  0  0  0  0  0  0
    0.7638   -0.0778   -0.1597 C   0  0  0  0  0  0  0  0  0  0  0  0
   -0.6983   -0.1682   -0.2685 C   0  0  0  0  0  0  0  0  0  0  0  0
   -1.2318   -1.4517   -0.8039 C   0  0  0  0  0  0  0  0  0  0  0  0
   -0.5016   -2.4117   -0.8461 O   0  0  0  0  0  0  0  0  0  0  0  0
   -1.4466    0.2886    0.9755 C   0  0  0  0  0  0  0  0  0  0  0  0
   -1.4626    1.0756   -0.2932 C   0  0  0  0  0  0  0  0  0  0  0  0
    4.0470   -0.4602   -0.6209 H   0  0  0  0  0  0  0  0  0  0  0  0
   -2.2728   -1.5275   -1.1523 H   0  0  0  0  0  0  0  0  0  0  0  0
   -0.8543    0.7644    1.7996 H   0  0  0  0  0  0  0  0  0  0  0  0
   -2.3485   -0.2405    1.3076 H   0  0  0  0  0  0  0  0  0  0  0  0
   -0.8890    2.0244   -0.3710 H   0  0  0  0  0  0  0  0  0  0  0  0
   -2.4647    1.1012   -0.8043 H   0  0  0  0  0  0  0  0  0  0  0  0
  1  2  2  0
  2  3  1  0
  3  4  3  0
  4  5  1  0
  5  6  1  0
  6  7  2  0
  5  8  1  0
  8  9  1  0
  9  5  1  0
  2 10  1  0
  6 11  1  0
  8 12  1  0
  8 13  1  0
  9 14  1  0
  9 15  1  0
M  END
