
     RDKit          3D

 13 14  0  0  0  0  0  0  0  0999 V2000
   -2.7657   -0.2275    0.0535 O   0  0  0  0  0  0  0  0  0  0  0  0
   -1.6754   -0.5533   -0.3508 C   0  0  0  0  0  0  0  0  0  0  0  0
   -0.4684    0.0957    0.1456 C   0  0  0  0  0  0  0  0  0  0  0  0
   -0.7005    1.0840    1.0904 O   0  0  0  0  0  0  0  0  0  0  0  0
    0.6240    0.3637   -0.8433 C   0  0  0  0  0  0  0  0  0  0  0  0
    0.7414   -1.0231   -0.9358 O   0  0  0  0  0  0  0  0  0  0  0  0
    0.6716   -0.8333    0.4390 C   0  0  0  0  0  0  0  0  0  0  0  0
    1.5592    0.2891    0.2508 C   0  0  0  0  0  0  0  0  0  0  0  0
    2.5144    0.8120    0.7527 O   0  0  0  0  0  0  0  0  0  0  0  0
   -1.6104   -1.3326   -1.0853 H   0  0  0  0  0  0  0  0  0  0  0  0
   -0.1597    1.8854    0.9691 H   0  0  0  0  0  0  0  0  0  0  0  0
    0.5851    0.9993   -1.6242 H   0  0  0  0  0  0  0  0  0  0  0  0
    0.6843   -1.5594    1.1382 H   0  0  0  0  0  0  0  0  0  0  0  0
  1  2  2  0
  2  3  1  0
  3  4  1  0
  3  5  1  0
  5  6  1  0
  6  7  1  0
  7  8  1  0
  8  9  2  0
  7  3  1  0
  8  5  1  0
  2 10  1  0
  4 11  1  0
  5 12  1  0
  7 13  1  0
M  END
