
     RDKit          3D

 17 18  0  0  0  0  0  0  0  0999 V2000
    2.3787    1.3373   -0.8746 O   0  0  0  0  0  0  0  0  0  0  0  0
    2.4236    0.5743    0.0728 C   0  0  0  0  0  0  0  0  0  0  0  0
    1.4382   -0.5203    0.2950 C   0  0  0  0  0  0  0  0  0  0  0  0
    0.0309   -0.0405    0.3443 C   0  0  0  0  0  0  0  0  0  0  0  0
   -0.4619    0.6634   -0.8846 C   0  0  0  0  0  0  0  0  0  0  0  0
   -1.9179    0.8496   -0.6007 C   0  0  0  0  0  0  0  0  0  0  0  0
   -2.2365   -0.3632   -0.1301 C   0  0  0  0  0  0  0  0  0  0  0  0
   -0.9148   -1.0626   -0.2561 C   0  0  0  0  0  0  0  0  0  0  0  0
   -0.4547   -0.5843   -1.4980 O   0  0  0  0  0  0  0  0  0  0  0  0
    3.2540    0.7316    0.7816 H   0  0  0  0  0  0  0  0  0  0  0  0
    1.6718   -1.0506    1.2400 H   0  0  0  0  0  0  0  0  0  0  0  0
    1.5260   -1.3044   -0.5160 H   0  0  0  0  0  0  0  0  0  0  0  0
   -0.3187    0.3838    1.3130 H   0  0  0  0  0  0  0  0  0  0  0  0
    0.0870    1.4598   -1.2995 H   0  0  0  0  0  0  0  0  0  0  0  0
   -2.4885    1.7533   -0.7559 H   0  0  0  0  0  0  0  0  0  0  0  0
   -3.1842   -0.7445    0.2386 H   0  0  0  0  0  0  0  0  0  0  0  0
   -0.8330   -2.0826   -0.0409 H   0  0  0  0  0  0  0  0  0  0  0  0
  1  2  2  0
  2  3  1  0
  3  4  1  0
  4  5  1  0
  5  6  1  0
  6  7  2  0
  7  8  1  0
  8  9  1  0
  8  4  1  0
  9  5  1  0
  2 10  1  0
  3 11  1  0
  3 12  1  0
  4 13  1  0
  5 14  1  0
  6 15  1  0
  7 16  1  0
  8 17  1  0
M  END
