
     RDKit          3D

 19 20  0  0  0  0  0  0  0  0999 V2000
    2.6019    1.6848   -0.5432 O   0  0  0  0  0  0  0  0  0  0  0  0
    2.5339    0.5077   -0.1644 C   0  0  0  0  0  0  0  0  0  0  0  0
    1.3007   -0.2441   -0.5278 C   0  0  0  0  0  0  0  0  0  0  0  0
    0.9758   -1.3842    0.4472 C   0  0  0  0  0  0  0  0  0  0  0  0
   -0.4456   -0.9416    0.5027 C   0  0  0  0  0  0  0  0  0  0  0  0
   -1.7457   -0.7975    0.6351 C   0  0  0  0  0  0  0  0  0  0  0  0
   -2.1475    0.6070    0.2458 C   0  0  0  0  0  0  0  0  0  0  0  0
   -1.0317    0.8391   -0.8057 C   0  0  0  0  0  0  0  0  0  0  0  0
    0.0994    0.4192    0.0609 C   0  0  0  0  0  0  0  0  0  0  0  0
    3.3359    0.0670    0.3985 H   0  0  0  0  0  0  0  0  0  0  0  0
    1.2841   -0.5234   -1.5759 H   0  0  0  0  0  0  0  0  0  0  0  0
    1.5325   -1.3413    1.3828 H   0  0  0  0  0  0  0  0  0  0  0  0
    1.1546   -2.3393   -0.0785 H   0  0  0  0  0  0  0  0  0  0  0  0
   -2.4554   -1.5418    0.9678 H   0  0  0  0  0  0  0  0  0  0  0  0
   -3.1344    0.6660   -0.1843 H   0  0  0  0  0  0  0  0  0  0  0  0
   -1.9277    1.2533    1.1011 H   0  0  0  0  0  0  0  0  0  0  0  0
   -1.1962    0.0912   -1.6106 H   0  0  0  0  0  0  0  0  0  0  0  0
   -1.0131    1.8728   -1.1398 H   0  0  0  0  0  0  0  0  0  0  0  0
    0.2785    1.1051    0.8884 H   0  0  0  0  0  0  0  0  0  0  0  0
  1  2  2  0
  2  3  1  0
  3  4  1  0
  4  5  1  0
  5  6  2  0
  6  7  1  0
  7  8  1  0
  8  9  1  0
  9  3  1  0
  9  5  1  0
  2 10  1  0
  3 11  1  0
  4 12  1  0
  4 13  1  0
  6 14  1  0
  7 15  1  0
  7 16  1  0
  8 17  1  0
  8 18  1  0
  9 19  1  0
M  END
