
     RDKit          3D

 19 19  0  0  0  0  0  0  0  0999 V2000
   -0.6130    0.3392   -2.4972 O   0  0  0  0  0  0  0  0  0  0  0  0
   -1.1583   -0.5033   -1.7913 C   0  0  0  0  0  0  0  0  0  0  0  0
   -0.8637   -0.5284   -0.3476 C   0  0  0  0  0  0  0  0  0  0  0  0
   -1.8884    0.1743    0.4679 C   0  0  0  0  0  0  0  0  0  0  0  0
   -1.2924    0.7372    1.5088 C   0  0  0  0  0  0  0  0  0  0  0  0
    0.1765    0.4617    1.4797 C   0  0  0  0  0  0  0  0  0  0  0  0
    0.3703    0.2920   -0.0360 C   0  0  0  0  0  0  0  0  0  0  0  0
    1.6497   -0.4560   -0.3270 C   0  0  0  0  0  0  0  0  0  0  0  0
    2.7096    0.3722   -0.0120 O   0  0  0  0  0  0  0  0  0  0  0  0
   -1.8298   -1.1853   -2.2731 H   0  0  0  0  0  0  0  0  0  0  0  0
   -0.7059   -1.5593    0.0517 H   0  0  0  0  0  0  0  0  0  0  0  0
   -2.9495    0.2077    0.2299 H   0  0  0  0  0  0  0  0  0  0  0  0
   -1.7946    1.3131    2.2704 H   0  0  0  0  0  0  0  0  0  0  0  0
    0.4099   -0.5391    1.9141 H   0  0  0  0  0  0  0  0  0  0  0  0
    0.7786    1.2739    1.8796 H   0  0  0  0  0  0  0  0  0  0  0  0
    0.3005    1.2447   -0.5694 H   0  0  0  0  0  0  0  0  0  0  0  0
    1.6787   -1.4198    0.2167 H   0  0  0  0  0  0  0  0  0  0  0  0
    1.6553   -0.6785   -1.4102 H   0  0  0  0  0  0  0  0  0  0  0  0
    3.3663    0.4537   -0.7550 H   0  0  0  0  0  0  0  0  0  0  0  0
  1  2  2  0
  2  3  1  0
  3  4  1  0
  4  5  2  0
  5  6  1  0
  6  7  1  0
  7  8  1  0
  8  9  1  0
  7  3  1  0
  2 10  1  0
  3 11  1  0
  4 12  1  0
  5 13  1  0
  6 14  1  0
  6 15  1  0
  7 16  1  0
  8 17  1  0
  8 18  1  0
  9 19  1  0
M  END
