
     RDKit          3D

 21 22  0  0  0  0  0  0  0  0999 V2000
    0.8217    2.1317    1.1508 O   0  0  0  0  0  0  0  0  0  0  0  0
    1.0462    1.6711    0.0321 C   0  0  0  0  0  0  0  0  0  0  0  0
    1.1498    0.2234   -0.0639 C   0  0  0  0  0  0  0  0  0  0  0  0
    0.0212   -0.4673   -0.8481 C   0  0  0  0  0  0  0  0  0  0  0  0
   -1.1914   -0.2278    0.1221 C   0  0  0  0  0  0  0  0  0  0  0  0
   -2.2563    0.6331   -0.4221 C   0  0  0  0  0  0  0  0  0  0  0  0
   -2.4935   -0.8272   -0.0985 C   0  0  0  0  0  0  0  0  0  0  0  0
    2.4871   -0.4190   -0.0972 C   0  0  0  0  0  0  0  0  0  0  0  0
    1.6306   -0.5364    1.1327 C   0  0  0  0  0  0  0  0  0  0  0  0
    1.1519    2.4128   -0.7476 H   0  0  0  0  0  0  0  0  0  0  0  0
    0.2073   -1.5314   -0.8731 H   0  0  0  0  0  0  0  0  0  0  0  0
   -0.1759   -0.0344   -1.8189 H   0  0  0  0  0  0  0  0  0  0  0  0
   -0.9103   -0.0610    1.2130 H   0  0  0  0  0  0  0  0  0  0  0  0
   -2.6720    1.4024    0.2316 H   0  0  0  0  0  0  0  0  0  0  0  0
   -2.3002    0.8778   -1.4913 H   0  0  0  0  0  0  0  0  0  0  0  0
   -2.6557   -1.5264   -0.9194 H   0  0  0  0  0  0  0  0  0  0  0  0
   -3.1201   -1.0980    0.8016 H   0  0  0  0  0  0  0  0  0  0  0  0
    3.3595    0.2500   -0.0150 H   0  0  0  0  0  0  0  0  0  0  0  0
    2.7225   -1.3400   -0.6660 H   0  0  0  0  0  0  0  0  0  0  0  0
    1.9165    0.0117    2.0521 H   0  0  0  0  0  0  0  0  0  0  0  0
    1.2612   -1.5452    1.3252 H   0  0  0  0  0  0  0  0  0  0  0  0
  1  2  2  0
  2  3  1  0
  3  4  1  0
  4  5  1  0
  5  6  1  0
  6  7  1  0
  3  8  1  0
  8  9  1  0
  9  3  1  0
  7  5  1  0
  2 10  1  0
  4 11  1  0
  4 12  1  0
  5 13  1  0
  6 14  1  0
  6 15  1  0
  7 16  1  0
  7 17  1  0
  8 18  1  0
  8 19  1  0
  9 20  1  0
  9 21  1  0
M  END
