
     RDKit          3D

 15 15  0  0  0  0  0  0  0  0999 V2000
    3.6175    1.0062    1.6718 O   0  0  0  0  0  0  0  0  0  0  0  0
    2.8821    0.9482    0.6510 C   0  0  0  0  0  0  0  0  0  0  0  0
    1.5664    0.3689    0.6822 C   0  0  0  0  0  0  0  0  0  0  0  0
    0.4630   -0.1154    0.7293 C   0  0  0  0  0  0  0  0  0  0  0  0
   -0.8732   -0.6906    0.7684 C   0  0  0  0  0  0  0  0  0  0  0  0
   -0.8911   -2.0553    0.8858 O   0  0  0  0  0  0  0  0  0  0  0  0
   -1.6507   -0.2177   -0.4309 C   0  0  0  0  0  0  0  0  0  0  0  0
   -1.0008    0.3958   -1.5669 C   0  0  0  0  0  0  0  0  0  0  0  0
   -1.5771    1.2635   -0.4783 O   0  0  0  0  0  0  0  0  0  0  0  0
    3.2871    1.3590   -0.2663 H   0  0  0  0  0  0  0  0  0  0  0  0
   -1.4046   -0.2708    1.6718 H   0  0  0  0  0  0  0  0  0  0  0  0
   -0.2054   -2.5299    0.3538 H   0  0  0  0  0  0  0  0  0  0  0  0
   -2.6806   -0.6017   -0.5463 H   0  0  0  0  0  0  0  0  0  0  0  0
    0.0817    0.5307   -1.6634 H   0  0  0  0  0  0  0  0  0  0  0  0
   -1.6143    0.6093   -2.4620 H   0  0  0  0  0  0  0  0  0  0  0  0
  1  2  2  0
  2  3  1  0
  3  4  3  0
  4  5  1  0
  5  6  1  0
  5  7  1  0
  7  8  1  0
  8  9  1  0
  9  7  1  0
  2 10  1  0
  5 11  1  0
  6 12  1  0
  7 13  1  0
  8 14  1  0
  8 15  1  0
M  END
