
     RDKit          3D

 21 21  0  0  0  0  0  0  0  0999 V2000
    2.2781    1.1027   -1.3364 O   0  0  0  0  0  0  0  0  0  0  0  0
    2.4914    0.5644   -0.2703 C   0  0  0  0  0  0  0  0  0  0  0  0
    1.5765   -0.4923    0.2181 C   0  0  0  0  0  0  0  0  0  0  0  0
    1.9422   -1.0089    1.4350 O   0  0  0  0  0  0  0  0  0  0  0  0
    0.2027    0.1060    0.3405 C   0  0  0  0  0  0  0  0  0  0  0  0
   -0.3288    0.6336   -0.9721 C   0  0  0  0  0  0  0  0  0  0  0  0
   -1.8488    0.4615   -0.8987 C   0  0  0  0  0  0  0  0  0  0  0  0
   -2.1170   -0.1233    0.4700 C   0  0  0  0  0  0  0  0  0  0  0  0
   -0.8456   -0.9558    0.6756 C   0  0  0  0  0  0  0  0  0  0  0  0
    3.3553    0.8821    0.2914 H   0  0  0  0  0  0  0  0  0  0  0  0
    1.4891   -1.3364   -0.5232 H   0  0  0  0  0  0  0  0  0  0  0  0
    2.8305   -0.6155    1.6741 H   0  0  0  0  0  0  0  0  0  0  0  0
    0.1675    0.8465    1.1397 H   0  0  0  0  0  0  0  0  0  0  0  0
   -0.0562    1.6882   -1.1043 H   0  0  0  0  0  0  0  0  0  0  0  0
    0.0962    0.0814   -1.8357 H   0  0  0  0  0  0  0  0  0  0  0  0
   -2.2234   -0.2083   -1.6856 H   0  0  0  0  0  0  0  0  0  0  0  0
   -2.3107    1.4792   -0.9531 H   0  0  0  0  0  0  0  0  0  0  0  0
   -2.0753    0.7138    1.2005 H   0  0  0  0  0  0  0  0  0  0  0  0
   -3.0226   -0.7195    0.5314 H   0  0  0  0  0  0  0  0  0  0  0  0
   -0.8383   -1.7752   -0.0911 H   0  0  0  0  0  0  0  0  0  0  0  0
   -0.7630   -1.3241    1.6942 H   0  0  0  0  0  0  0  0  0  0  0  0
  1  2  2  0
  2  3  1  0
  3  4  1  0
  3  5  1  0
  5  6  1  0
  6  7  1  0
  7  8  1  0
  8  9  1  0
  9  5  1  0
  2 10  1  0
  3 11  1  0
  4 12  1  0
  5 13  1  0
  6 14  1  0
  6 15  1  0
  7 16  1  0
  7 17  1  0
  8 18  1  0
  8 19  1  0
  9 20  1  0
  9 21  1  0
M  END
