
     RDKit          3D

 15 16  0  0  0  0  0  0  0  0999 V2000
   -1.7591    1.9762   -0.0198 O   0  0  0  0  0  0  0  0  0  0  0  0
   -0.9989    1.3291   -0.7184 C   0  0  0  0  0  0  0  0  0  0  0  0
    0.1124    0.6472   -0.0528 C   0  0  0  0  0  0  0  0  0  0  0  0
    0.2882    0.7363    1.3107 O   0  0  0  0  0  0  0  0  0  0  0  0
   -0.1823   -0.5706    1.4140 C   0  0  0  0  0  0  0  0  0  0  0  0
    0.0799   -0.8692   -0.0226 C   0  0  0  0  0  0  0  0  0  0  0  0
   -0.8886   -1.5221   -0.7785 O   0  0  0  0  0  0  0  0  0  0  0  0
    1.1226   -0.1432   -0.7901 C   0  0  0  0  0  0  0  0  0  0  0  0
    2.4156   -0.2433   -0.2434 O   0  0  0  0  0  0  0  0  0  0  0  0
   -1.1539    1.2727   -1.7791 H   0  0  0  0  0  0  0  0  0  0  0  0
    0.4540   -1.2302    2.0612 H   0  0  0  0  0  0  0  0  0  0  0  0
   -1.2591   -0.5911    1.6349 H   0  0  0  0  0  0  0  0  0  0  0  0
   -1.8177   -1.2411   -0.5254 H   0  0  0  0  0  0  0  0  0  0  0  0
    1.0878   -0.0853   -1.8751 H   0  0  0  0  0  0  0  0  0  0  0  0
    2.4990    0.5347    0.3845 H   0  0  0  0  0  0  0  0  0  0  0  0
  1  2  2  0
  2  3  1  0
  3  4  1  0
  4  5  1  0
  5  6  1  0
  6  7  1  0
  6  8  1  0
  8  9  1  0
  6  3  1  0
  8  3  1  0
  2 10  1  0
  5 11  1  0
  5 12  1  0
  7 13  1  0
  8 14  1  0
  9 15  1  0
M  END
