
     RDKit          3D

 19 20  0  0  0  0  0  0  0  0999 V2000
    2.8637    1.5266   -0.1992 O   0  0  0  0  0  0  0  0  0  0  0  0
    2.7718    0.5038    0.4705 C   0  0  0  0  0  0  0  0  0  0  0  0
    1.8880   -0.6088    0.0594 C   0  0  0  0  0  0  0  0  0  0  0  0
    0.4541   -0.2917    0.3865 C   0  0  0  0  0  0  0  0  0  0  0  0
   -0.2445    0.8636   -0.1669 C   0  0  0  0  0  0  0  0  0  0  0  0
   -1.5455    1.2092    0.4233 C   0  0  0  0  0  0  0  0  0  0  0  0
   -2.4412    0.2394    0.2822 C   0  0  0  0  0  0  0  0  0  0  0  0
   -1.8586   -0.9156   -0.4350 C   0  0  0  0  0  0  0  0  0  0  0  0
   -0.4846   -0.4553   -0.7953 C   0  0  0  0  0  0  0  0  0  0  0  0
    3.3661    0.4425    1.3827 H   0  0  0  0  0  0  0  0  0  0  0  0
    2.0530   -0.7368   -1.0510 H   0  0  0  0  0  0  0  0  0  0  0  0
    2.2151   -1.5694    0.4994 H   0  0  0  0  0  0  0  0  0  0  0  0
    0.1187   -0.6727    1.3746 H   0  0  0  0  0  0  0  0  0  0  0  0
    0.3486    1.6379   -0.7092 H   0  0  0  0  0  0  0  0  0  0  0  0
   -1.7739    2.1435    0.9229 H   0  0  0  0  0  0  0  0  0  0  0  0
   -3.4831    0.2421    0.6312 H   0  0  0  0  0  0  0  0  0  0  0  0
   -2.4234   -1.1909   -1.3420 H   0  0  0  0  0  0  0  0  0  0  0  0
   -1.7580   -1.7693    0.2806 H   0  0  0  0  0  0  0  0  0  0  0  0
   -0.0662   -0.5980   -1.8022 H   0  0  0  0  0  0  0  0  0  0  0  0
  1  2  2  0
  2  3  1  0
  3  4  1  0
  4  5  1  0
  5  6  1  0
  6  7  2  0
  7  8  1  0
  8  9  1  0
  9  4  1  0
  9  5  1  0
  2 10  1  0
  3 11  1  0
  3 12  1  0
  4 13  1  0
  5 14  1  0
  6 15  1  0
  7 16  1  0
  8 17  1  0
  8 18  1  0
  9 19  1  0
M  END
