
     RDKit          3D

 19 19  0  0  0  0  0  0  0  0999 V2000
   -0.4095    2.7895   -0.3764 O   0  0  0  0  0  0  0  0  0  0  0  0
   -1.1663    1.8538   -0.2449 C   0  0  0  0  0  0  0  0  0  0  0  0
   -0.6952    0.4817   -0.3767 C   0  0  0  0  0  0  0  0  0  0  0  0
   -1.5941   -0.5024    0.3635 C   0  0  0  0  0  0  0  0  0  0  0  0
   -0.6018   -1.6685    0.4270 C   0  0  0  0  0  0  0  0  0  0  0  0
    0.4872   -0.9849    1.0050 O   0  0  0  0  0  0  0  0  0  0  0  0
    0.6098    0.2059    0.2948 C   0  0  0  0  0  0  0  0  0  0  0  0
    1.7462    0.0069   -0.6864 C   0  0  0  0  0  0  0  0  0  0  0  0
    2.8864   -0.2762    0.0990 O   0  0  0  0  0  0  0  0  0  0  0  0
   -2.2013    2.0534   -0.0271 H   0  0  0  0  0  0  0  0  0  0  0  0
   -0.6758    0.1227   -1.4456 H   0  0  0  0  0  0  0  0  0  0  0  0
   -2.4991   -0.7455   -0.1654 H   0  0  0  0  0  0  0  0  0  0  0  0
   -1.6995   -0.1355    1.3892 H   0  0  0  0  0  0  0  0  0  0  0  0
   -0.9427   -2.4735    1.0575 H   0  0  0  0  0  0  0  0  0  0  0  0
   -0.3446   -1.9147   -0.6028 H   0  0  0  0  0  0  0  0  0  0  0  0
    0.8115    1.0055    1.0119 H   0  0  0  0  0  0  0  0  0  0  0  0
    1.9012    0.8594   -1.3546 H   0  0  0  0  0  0  0  0  0  0  0  0
    1.5862   -0.9000   -1.3049 H   0  0  0  0  0  0  0  0  0  0  0  0
    2.8013    0.2226    0.9368 H   0  0  0  0  0  0  0  0  0  0  0  0
  1  2  2  0
  2  3  1  0
  3  4  1  0
  4  5  1  0
  5  6  1  0
  6  7  1  0
  7  8  1  0
  8  9  1  0
  7  3  1  0
  2 10  1  0
  3 11  1  0
  4 12  1  0
  4 13  1  0
  5 14  1  0
  5 15  1  0
  7 16  1  0
  8 17  1  0
  8 18  1  0
  9 19  1  0
M  END
