
     RDKit          3D

 19 19  0  0  0  0  0  0  0  0999 V2000
    2.4026    1.3495    1.2370 O   0  0  0  0  0  0  0  0  0  0  0  0
    1.7779    1.1441    0.2338 C   0  0  0  0  0  0  0  0  0  0  0  0
    1.2543   -0.1828   -0.0879 C   0  0  0  0  0  0  0  0  0  0  0  0
    1.6138   -1.0609    0.9380 O   0  0  0  0  0  0  0  0  0  0  0  0
   -0.2357   -0.2482   -0.2439 C   0  0  0  0  0  0  0  0  0  0  0  0
   -0.9356    0.5700   -1.2854 C   0  0  0  0  0  0  0  0  0  0  0  0
   -0.7480    1.9370   -1.1356 O   0  0  0  0  0  0  0  0  0  0  0  0
   -0.8774   -1.6148    0.0037 C   0  0  0  0  0  0  0  0  0  0  0  0
   -0.9764   -0.5512    1.0472 C   0  0  0  0  0  0  0  0  0  0  0  0
    1.6065    1.9582   -0.4330 H   0  0  0  0  0  0  0  0  0  0  0  0
    1.7020   -0.6203   -1.0166 H   0  0  0  0  0  0  0  0  0  0  0  0
    1.6272   -0.5367    1.7776 H   0  0  0  0  0  0  0  0  0  0  0  0
   -2.0275    0.3901   -1.1686 H   0  0  0  0  0  0  0  0  0  0  0  0
   -0.6562    0.2695   -2.3116 H   0  0  0  0  0  0  0  0  0  0  0  0
   -1.1360    2.2950   -0.3201 H   0  0  0  0  0  0  0  0  0  0  0  0
   -1.8310   -1.8462   -0.5159 H   0  0  0  0  0  0  0  0  0  0  0  0
   -0.1847   -2.4617    0.0984 H   0  0  0  0  0  0  0  0  0  0  0  0
   -0.4174   -0.7286    1.9707 H   0  0  0  0  0  0  0  0  0  0  0  0
   -1.9584   -0.0620    1.2122 H   0  0  0  0  0  0  0  0  0  0  0  0
  1  2  2  0
  2  3  1  0
  3  4  1  0
  3  5  1  0
  5  6  1  0
  6  7  1  0
  5  8  1  0
  8  9  1  0
  9  5  1  0
  2 10  1  0
  3 11  1  0
  4 12  1  0
  6 13  1  0
  6 14  1  0
  7 15  1  0
  8 16  1  0
  8 17  1  0
  9 18  1  0
  9 19  1  0
M  END
