
     RDKit          3D

 15 17  0  0  0  0  0  0  0  0999 V2000
    2.7005    0.6221    0.7585 O   0  0  0  0  0  0  0  0  0  0  0  0
    1.7041   -0.0628    0.8370 C   0  0  0  0  0  0  0  0  0  0  0  0
    0.6445    0.0394   -0.1600 C   0  0  0  0  0  0  0  0  0  0  0  0
    0.1360   -1.1820   -0.8222 C   0  0  0  0  0  0  0  0  0  0  0  0
   -0.7380   -0.4269    0.0680 C   0  0  0  0  0  0  0  0  0  0  0  0
   -1.0976   -0.8181    1.3264 O   0  0  0  0  0  0  0  0  0  0  0  0
   -1.3164    0.8580   -0.4784 C   0  0  0  0  0  0  0  0  0  0  0  0
   -0.7829    1.4034   -1.6250 O   0  0  0  0  0  0  0  0  0  0  0  0
    0.1088    1.3865   -0.5694 C   0  0  0  0  0  0  0  0  0  0  0  0
    1.6188   -0.7501    1.6618 H   0  0  0  0  0  0  0  0  0  0  0  0
    0.0131   -1.1321   -1.9194 H   0  0  0  0  0  0  0  0  0  0  0  0
    0.6076   -2.1338   -0.4668 H   0  0  0  0  0  0  0  0  0  0  0  0
   -1.8289   -1.4804    1.2597 H   0  0  0  0  0  0  0  0  0  0  0  0
   -2.0684    1.4123    0.0848 H   0  0  0  0  0  0  0  0  0  0  0  0
    0.2988    2.2646    0.0450 H   0  0  0  0  0  0  0  0  0  0  0  0
  1  2  2  0
  2  3  1  0
  3  4  1  0
  4  5  1  0
  5  6  1  0
  5  7  1  0
  7  8  1  0
  8  9  1  0
  5  3  1  0
  9  7  1  0
  9  3  1  0
  2 10  1  0
  4 11  1  0
  4 12  1  0
  6 13  1  0
  7 14  1  0
  9 15  1  0
M  END
