
     RDKit          3D

 15 15  0  0  0  0  0  0  0  0999 V2000
    3.8310   -1.0020   -2.3933 O   0  0  0  0  0  0  0  0  0  0  0  0
    3.3391   -0.9669   -1.2484 C   0  0  0  0  0  0  0  0  0  0  0  0
    2.0174   -0.4971   -0.9897 C   0  0  0  0  0  0  0  0  0  0  0  0
    0.8982   -0.0787   -0.7620 C   0  0  0  0  0  0  0  0  0  0  0  0
   -0.4495    0.4426   -0.4890 C   0  0  0  0  0  0  0  0  0  0  0  0
   -1.5076   -0.6393   -0.1296 C   0  0  0  0  0  0  0  0  0  0  0  0
   -0.9014    0.3066    0.9136 C   0  0  0  0  0  0  0  0  0  0  0  0
   -1.8746    1.3101    1.4058 C   0  0  0  0  0  0  0  0  0  0  0  0
   -2.6128    1.9016    0.6448 O   0  0  0  0  0  0  0  0  0  0  0  0
    3.9298   -1.3026   -0.4211 H   0  0  0  0  0  0  0  0  0  0  0  0
   -0.8101    1.3113   -1.0475 H   0  0  0  0  0  0  0  0  0  0  0  0
   -2.5234   -0.4586   -0.4900 H   0  0  0  0  0  0  0  0  0  0  0  0
   -1.1247   -1.6768   -0.1054 H   0  0  0  0  0  0  0  0  0  0  0  0
   -0.2756   -0.1764    1.6828 H   0  0  0  0  0  0  0  0  0  0  0  0
   -1.9358    1.5262    2.4603 H   0  0  0  0  0  0  0  0  0  0  0  0
  1  2  2  0
  2  3  1  0
  3  4  3  0
  4  5  1  0
  5  6  1  0
  6  7  1  0
  7  8  1  0
  8  9  2  0
  7  5  1  0
  2 10  1  0
  5 11  1  0
  6 12  1  0
  6 13  1  0
  7 14  1  0
  8 15  1  0
M  END
