
     RDKit          3D

 21 21  0  0  0  0  0  0  0  0999 V2000
    4.4272    0.4555   -0.6761 O   0  0  0  0  0  0  0  0  0  0  0  0
    3.3505   -0.0833   -0.4850 C   0  0  0  0  0  0  0  0  0  0  0  0
    2.0684    0.4588   -1.0051 C   0  0  0  0  0  0  0  0  0  0  0  0
    0.9395   -0.4349   -0.5965 C   0  0  0  0  0  0  0  0  0  0  0  0
    0.7695   -0.5935    0.9014 C   0  0  0  0  0  0  0  0  0  0  0  0
   -0.2591    0.1376    0.0758 C   0  0  0  0  0  0  0  0  0  0  0  0
   -1.5880   -0.5143    0.0080 C   0  0  0  0  0  0  0  0  0  0  0  0
   -2.6622    0.2393    0.7631 C   0  0  0  0  0  0  0  0  0  0  0  0
   -3.8482   -0.5147    0.5931 O   0  0  0  0  0  0  0  0  0  0  0  0
    3.3300   -1.0001    0.0914 H   0  0  0  0  0  0  0  0  0  0  0  0
    1.9343    1.5118   -0.6621 H   0  0  0  0  0  0  0  0  0  0  0  0
    2.1824    0.4737   -2.1286 H   0  0  0  0  0  0  0  0  0  0  0  0
    0.7105   -1.3122   -1.2545 H   0  0  0  0  0  0  0  0  0  0  0  0
    0.5626   -1.6381    1.2155 H   0  0  0  0  0  0  0  0  0  0  0  0
    1.4221   -0.0031    1.5638 H   0  0  0  0  0  0  0  0  0  0  0  0
   -0.3065    1.2419    0.2620 H   0  0  0  0  0  0  0  0  0  0  0  0
   -1.8537   -0.6567   -1.0560 H   0  0  0  0  0  0  0  0  0  0  0  0
   -1.5492   -1.5293    0.4483 H   0  0  0  0  0  0  0  0  0  0  0  0
   -2.8513    1.2180    0.3065 H   0  0  0  0  0  0  0  0  0  0  0  0
   -2.4338    0.3067    1.8439 H   0  0  0  0  0  0  0  0  0  0  0  0
   -4.3451   -0.2355   -0.2089 H   0  0  0  0  0  0  0  0  0  0  0  0
  1  2  2  0
  2  3  1  0
  3  4  1  0
  4  5  1  0
  5  6  1  0
  6  7  1  0
  7  8  1  0
  8  9  1  0
  6  4  1  0
  2 10  1  0
  3 11  1  0
  3 12  1  0
  4 13  1  0
  5 14  1  0
  5 15  1  0
  6 16  1  0
  7 17  1  0
  7 18  1  0
  8 19  1  0
  8 20  1  0
  9 21  1  0
M  END
