
     RDKit          3D

 21 22  0  0  0  0  0  0  0  0999 V2000
    2.3954    2.2143    0.5897 O   0  0  0  0  0  0  0  0  0  0  0  0
    2.1551    1.1988   -0.0446 C   0  0  0  0  0  0  0  0  0  0  0  0
    1.6247   -0.0011    0.6527 C   0  0  0  0  0  0  0  0  0  0  0  0
    0.5664   -0.6055   -0.2424 C   0  0  0  0  0  0  0  0  0  0  0  0
   -0.0736   -1.8687    0.3427 C   0  0  0  0  0  0  0  0  0  0  0  0
   -1.4446   -1.3135   -0.0144 C   0  0  0  0  0  0  0  0  0  0  0  0
   -0.7749    0.0038   -0.1934 C   0  0  0  0  0  0  0  0  0  0  0  0
   -1.1734    1.2480    0.4186 C   0  0  0  0  0  0  0  0  0  0  0  0
   -1.1902    1.0617   -1.0930 C   0  0  0  0  0  0  0  0  0  0  0  0
    2.3424    1.2084   -1.1030 H   0  0  0  0  0  0  0  0  0  0  0  0
    2.4759   -0.6918    0.8109 H   0  0  0  0  0  0  0  0  0  0  0  0
    1.1429    0.2740    1.6322 H   0  0  0  0  0  0  0  0  0  0  0  0
    0.8850   -0.8217   -1.2798 H   0  0  0  0  0  0  0  0  0  0  0  0
    0.2022   -2.7919   -0.1961 H   0  0  0  0  0  0  0  0  0  0  0  0
    0.0921   -1.9783    1.4349 H   0  0  0  0  0  0  0  0  0  0  0  0
   -2.1773   -1.3281    0.7942 H   0  0  0  0  0  0  0  0  0  0  0  0
   -1.7882   -1.7111   -1.0065 H   0  0  0  0  0  0  0  0  0  0  0  0
   -0.4700    1.9646    0.8675 H   0  0  0  0  0  0  0  0  0  0  0  0
   -2.2020    1.3184    0.8507 H   0  0  0  0  0  0  0  0  0  0  0  0
   -0.4217    1.6493   -1.6127 H   0  0  0  0  0  0  0  0  0  0  0  0
   -2.1662    0.9705   -1.6082 H   0  0  0  0  0  0  0  0  0  0  0  0
  1  2  2  0
  2  3  1  0
  3  4  1  0
  4  5  1  0
  5  6  1  0
  6  7  1  0
  7  8  1  0
  8  9  1  0
  7  4  1  0
  9  7  1  0
  2 10  1  0
  3 11  1  0
  3 12  1  0
  4 13  1  0
  5 14  1  0
  5 15  1  0
  6 16  1  0
  6 17  1  0
  8 18  1  0
  8 19  1  0
  9 20  1  0
  9 21  1  0
M  END
