
     RDKit          3D

 17 18  0  0  0  0  0  0  0  0999 V2000
    1.2413    2.6143   -0.1769 O   0  0  0  0  0  0  0  0  0  0  0  0
    0.4796    1.8591    0.3948 C   0  0  0  0  0  0  0  0  0  0  0  0
    0.1547    0.4932   -0.0322 C   0  0  0  0  0  0  0  0  0  0  0  0
   -0.9774    0.2497   -1.0120 C   0  0  0  0  0  0  0  0  0  0  0  0
   -1.7327   -0.8408   -0.3755 C   0  0  0  0  0  0  0  0  0  0  0  0
   -1.1412   -1.2850    0.7222 C   0  0  0  0  0  0  0  0  0  0  0  0
    0.1161   -0.5493    0.9903 C   0  0  0  0  0  0  0  0  0  0  0  0
    1.1841   -0.5915   -0.0305 C   0  0  0  0  0  0  0  0  0  0  0  0
    2.4660   -0.1843    0.2643 O   0  0  0  0  0  0  0  0  0  0  0  0
    0.0065    2.2445    1.2990 H   0  0  0  0  0  0  0  0  0  0  0  0
   -0.4804   -0.1234   -1.9545 H   0  0  0  0  0  0  0  0  0  0  0  0
   -1.5686    1.1602   -1.1824 H   0  0  0  0  0  0  0  0  0  0  0  0
   -2.6795   -1.2208   -0.7913 H   0  0  0  0  0  0  0  0  0  0  0  0
   -1.5602   -2.0895    1.3209 H   0  0  0  0  0  0  0  0  0  0  0  0
    0.4041   -0.2798    2.0165 H   0  0  0  0  0  0  0  0  0  0  0  0
    1.1508   -1.3833   -0.8285 H   0  0  0  0  0  0  0  0  0  0  0  0
    2.9367   -0.0732   -0.6243 H   0  0  0  0  0  0  0  0  0  0  0  0
  1  2  2  0
  2  3  1  0
  3  4  1  0
  4  5  1  0
  5  6  2  0
  6  7  1  0
  7  8  1  0
  8  9  1  0
  7  3  1  0
  8  3  1  0
  2 10  1  0
  4 11  1  0
  4 12  1  0
  5 13  1  0
  6 14  1  0
  7 15  1  0
  8 16  1  0
  9 17  1  0
M  END
