
     RDKit          3D

 17 18  0  0  0  0  0  0  0  0999 V2000
    3.0707    0.6024    0.3567 O   0  0  0  0  0  0  0  0  0  0  0  0
    1.9639    0.7742   -0.0899 C   0  0  0  0  0  0  0  0  0  0  0  0
    1.0338   -0.3613   -0.2526 C   0  0  0  0  0  0  0  0  0  0  0  0
    0.3617   -0.8311    1.0204 C   0  0  0  0  0  0  0  0  0  0  0  0
    0.2695    0.2208    1.9487 O   0  0  0  0  0  0  0  0  0  0  0  0
   -0.9135   -0.9254    0.1937 C   0  0  0  0  0  0  0  0  0  0  0  0
   -1.4686    0.3772   -0.2117 C   0  0  0  0  0  0  0  0  0  0  0  0
   -2.6592    0.3350   -0.9353 O   0  0  0  0  0  0  0  0  0  0  0  0
   -0.2641   -0.0546   -0.9189 C   0  0  0  0  0  0  0  0  0  0  0  0
    1.6284    1.7504   -0.3787 H   0  0  0  0  0  0  0  0  0  0  0  0
    1.5519   -1.2474   -0.7154 H   0  0  0  0  0  0  0  0  0  0  0  0
    0.7344   -1.7749    1.4239 H   0  0  0  0  0  0  0  0  0  0  0  0
    0.5154    1.0926    1.5319 H   0  0  0  0  0  0  0  0  0  0  0  0
   -1.2774   -1.8888   -0.1440 H   0  0  0  0  0  0  0  0  0  0  0  0
   -1.4585    1.1756    0.5624 H   0  0  0  0  0  0  0  0  0  0  0  0
   -2.7209    1.1900   -1.4342 H   0  0  0  0  0  0  0  0  0  0  0  0
   -0.3676   -0.4346   -1.9571 H   0  0  0  0  0  0  0  0  0  0  0  0
  1  2  2  0
  2  3  1  0
  3  4  1  0
  4  5  1  0
  4  6  1  0
  6  7  1  0
  7  8  1  0
  7  9  1  0
  9  3  1  0
  9  6  1  0
  2 10  1  0
  3 11  1  0
  4 12  1  0
  5 13  1  0
  6 14  1  0
  7 15  1  0
  8 16  1  0
  9 17  1  0
M  END
