
     RDKit          3D

 16 16  0  0  0  0  0  0  0  0999 V2000
   -2.4690   -1.0643   -0.4219 O   0  0  0  0  0  0  0  0  0  0  0  0
   -1.8307   -0.0609   -0.6228 C   0  0  0  0  0  0  0  0  0  0  0  0
   -0.9265    0.5420    0.3939 C   0  0  0  0  0  0  0  0  0  0  0  0
   -0.4397   -0.4544    1.3702 C   0  0  0  0  0  0  0  0  0  0  0  0
    0.6555   -1.0190    0.8989 C   0  0  0  0  0  0  0  0  0  0  0  0
    1.0070   -0.4529   -0.4413 C   0  0  0  0  0  0  0  0  0  0  0  0
    2.3635   -0.3472   -0.6397 O   0  0  0  0  0  0  0  0  0  0  0  0
    0.3534    0.9292   -0.3590 C   0  0  0  0  0  0  0  0  0  0  0  0
   -1.8973    0.4496   -1.5797 H   0  0  0  0  0  0  0  0  0  0  0  0
   -1.3157    1.4621    0.8389 H   0  0  0  0  0  0  0  0  0  0  0  0
   -0.9220   -0.6694    2.3155 H   0  0  0  0  0  0  0  0  0  0  0  0
    1.2692   -1.7888    1.3562 H   0  0  0  0  0  0  0  0  0  0  0  0
    0.4943   -1.0420   -1.1995 H   0  0  0  0  0  0  0  0  0  0  0  0
    2.6054    0.5753   -0.8804 H   0  0  0  0  0  0  0  0  0  0  0  0
    0.1356    1.3495   -1.3407 H   0  0  0  0  0  0  0  0  0  0  0  0
    0.9172    1.5912    0.3113 H   0  0  0  0  0  0  0  0  0  0  0  0
  1  2  2  0
  2  3  1  0
  3  4  1  0
  4  5  2  0
  5  6  1  0
  6  7  1  0
  6  8  1  0
  8  3  1  0
  2  9  1  0
  3 10  1  0
  4 11  1  0
  5 12  1  0
  6 13  1  0
  7 14  1  0
  8 15  1  0
  8 16  1  0
M  END
