
     RDKit          3D

 17 18  0  0  0  0  0  0  0  0999 V2000
    3.1537    0.2659   -1.1571 O   0  0  0  0  0  0  0  0  0  0  0  0
    2.4748   -0.2012   -0.2583 C   0  0  0  0  0  0  0  0  0  0  0  0
    1.0173   -0.4013   -0.3183 C   0  0  0  0  0  0  0  0  0  0  0  0
    0.4365   -0.0012   -1.5317 O   0  0  0  0  0  0  0  0  0  0  0  0
   -0.6248    0.5996   -0.8759 C   0  0  0  0  0  0  0  0  0  0  0  0
   -1.7861   -0.2775   -0.5470 C   0  0  0  0  0  0  0  0  0  0  0  0
   -1.5691   -0.8694    0.6705 O   0  0  0  0  0  0  0  0  0  0  0  0
   -0.7438   -0.0697    1.4215 C   0  0  0  0  0  0  0  0  0  0  0  0
    0.1682    0.5910    0.4135 C   0  0  0  0  0  0  0  0  0  0  0  0
    2.9858   -0.4903    0.6535 H   0  0  0  0  0  0  0  0  0  0  0  0
    0.7038   -1.4563   -0.1242 H   0  0  0  0  0  0  0  0  0  0  0  0
   -0.8367    1.5822   -1.3082 H   0  0  0  0  0  0  0  0  0  0  0  0
   -1.9279   -1.0811   -1.3081 H   0  0  0  0  0  0  0  0  0  0  0  0
   -2.7079    0.3608   -0.5408 H   0  0  0  0  0  0  0  0  0  0  0  0
   -0.1005   -0.7486    2.0412 H   0  0  0  0  0  0  0  0  0  0  0  0
   -1.2697    0.6641    2.0581 H   0  0  0  0  0  0  0  0  0  0  0  0
    0.6263    1.5330    0.7112 H   0  0  0  0  0  0  0  0  0  0  0  0
  1  2  2  0
  2  3  1  0
  3  4  1  0
  4  5  1  0
  5  6  1  0
  6  7  1  0
  7  8  1  0
  8  9  1  0
  9  3  1  0
  9  5  1  0
  2 10  1  0
  3 11  1  0
  5 12  1  0
  6 13  1  0
  6 14  1  0
  8 15  1  0
  8 16  1  0
  9 17  1  0
M  END
