
     RDKit          3D

 17 18  0  0  0  0  0  0  0  0999 V2000
   -2.4534    1.2657    0.5311 O   0  0  0  0  0  0  0  0  0  0  0  0
   -2.0128    0.1416    0.6038 C   0  0  0  0  0  0  0  0  0  0  0  0
   -0.8933   -0.3658   -0.2285 C   0  0  0  0  0  0  0  0  0  0  0  0
    0.2020   -0.9400    0.6446 C   0  0  0  0  0  0  0  0  0  0  0  0
    0.7916   -2.0464   -0.0014 O   0  0  0  0  0  0  0  0  0  0  0  0
    1.0434    0.2862    0.5112 C   0  0  0  0  0  0  0  0  0  0  0  0
    2.3765    0.1207    0.1865 O   0  0  0  0  0  0  0  0  0  0  0  0
    0.4542    1.6498    0.4647 C   0  0  0  0  0  0  0  0  0  0  0  0
    0.0839    0.7321   -0.6214 C   0  0  0  0  0  0  0  0  0  0  0  0
   -2.4612   -0.5390    1.3196 H   0  0  0  0  0  0  0  0  0  0  0  0
   -1.2285   -1.0123   -1.0588 H   0  0  0  0  0  0  0  0  0  0  0  0
   -0.1120   -1.2066    1.6749 H   0  0  0  0  0  0  0  0  0  0  0  0
    0.1782   -2.3985   -0.7225 H   0  0  0  0  0  0  0  0  0  0  0  0
    2.6267   -0.8057    0.4566 H   0  0  0  0  0  0  0  0  0  0  0  0
   -0.3164    1.9474    1.1900 H   0  0  0  0  0  0  0  0  0  0  0  0
    1.1655    2.4559    0.2020 H   0  0  0  0  0  0  0  0  0  0  0  0
    0.5557    0.7149   -1.6070 H   0  0  0  0  0  0  0  0  0  0  0  0
  1  2  2  0
  2  3  1  0
  3  4  1  0
  4  5  1  0
  4  6  1  0
  6  7  1  0
  6  8  1  0
  8  9  1  0
  9  3  1  0
  9  6  1  0
  2 10  1  0
  3 11  1  0
  4 12  1  0
  5 13  1  0
  7 14  1  0
  8 15  1  0
  8 16  1  0
  9 17  1  0
M  END
