
     RDKit          3D

 17 17  0  0  0  0  0  0  0  0999 V2000
    2.9730   -1.1556   -0.4078 O   0  0  0  0  0  0  0  0  0  0  0  0
    1.7342   -1.3468   -0.4926 C   0  0  0  0  0  0  0  0  0  0  0  0
    0.7916   -0.2506   -0.2709 C   0  0  0  0  0  0  0  0  0  0  0  0
    1.1542    0.9868    0.0263 C   0  0  0  0  0  0  0  0  0  0  0  0
   -0.0633    1.8505    0.1857 C   0  0  0  0  0  0  0  0  0  0  0  0
   -1.0983    0.7859    0.5806 C   0  0  0  0  0  0  0  0  0  0  0  0
   -0.6793   -0.3366   -0.3416 C   0  0  0  0  0  0  0  0  0  0  0  0
   -1.2224   -1.6401    0.0470 C   0  0  0  0  0  0  0  0  0  0  0  0
   -0.6920   -2.4258    0.8014 O   0  0  0  0  0  0  0  0  0  0  0  0
    1.3992   -2.3464   -0.7341 H   0  0  0  0  0  0  0  0  0  0  0  0
    2.1483    1.3919    0.1521 H   0  0  0  0  0  0  0  0  0  0  0  0
    0.0621    2.6084    0.9688 H   0  0  0  0  0  0  0  0  0  0  0  0
   -0.3373    2.2656   -0.8008 H   0  0  0  0  0  0  0  0  0  0  0  0
   -0.8870    0.5122    1.6330 H   0  0  0  0  0  0  0  0  0  0  0  0
   -2.1050    1.1570    0.3981 H   0  0  0  0  0  0  0  0  0  0  0  0
   -0.9878   -0.1015   -1.3786 H   0  0  0  0  0  0  0  0  0  0  0  0
   -2.1902   -1.9548   -0.3666 H   0  0  0  0  0  0  0  0  0  0  0  0
  1  2  2  0
  2  3  1  0
  3  4  2  0
  4  5  1  0
  5  6  1  0
  6  7  1  0
  7  8  1  0
  8  9  2  0
  7  3  1  0
  2 10  1  0
  4 11  1  0
  5 12  1  0
  5 13  1  0
  6 14  1  0
  6 15  1  0
  7 16  1  0
  8 17  1  0
M  END
