
     RDKit          3D

 21 21  0  0  0  0  0  0  0  0999 V2000
    4.0940    1.3931   -0.6453 O   0  0  0  0  0  0  0  0  0  0  0  0
    3.4939    0.3333   -0.5525 C   0  0  0  0  0  0  0  0  0  0  0  0
    2.3105    0.1290    0.3262 C   0  0  0  0  0  0  0  0  0  0  0  0
    1.0205   -0.0420   -0.4775 C   0  0  0  0  0  0  0  0  0  0  0  0
   -0.1478   -0.2350    0.4524 C   0  0  0  0  0  0  0  0  0  0  0  0
   -1.4481   -0.4537   -0.2231 C   0  0  0  0  0  0  0  0  0  0  0  0
   -2.5536   -0.6253    0.8207 C   0  0  0  0  0  0  0  0  0  0  0  0
   -3.4183   -0.0780   -0.1251 O   0  0  0  0  0  0  0  0  0  0  0  0
   -2.3199    0.7074   -0.5513 C   0  0  0  0  0  0  0  0  0  0  0  0
    3.7907   -0.5543   -1.1293 H   0  0  0  0  0  0  0  0  0  0  0  0
    2.4948   -0.7943    0.9223 H   0  0  0  0  0  0  0  0  0  0  0  0
    2.1546    1.0210    0.9707 H   0  0  0  0  0  0  0  0  0  0  0  0
    0.8654    0.9267   -1.0016 H   0  0  0  0  0  0  0  0  0  0  0  0
    1.1174   -0.8714   -1.2043 H   0  0  0  0  0  0  0  0  0  0  0  0
   -0.2640    0.5876    1.1665 H   0  0  0  0  0  0  0  0  0  0  0  0
    0.1040   -1.1348    1.0869 H   0  0  0  0  0  0  0  0  0  0  0  0
   -1.5086   -1.2366   -0.9944 H   0  0  0  0  0  0  0  0  0  0  0  0
   -2.4557    0.0994    1.6639 H   0  0  0  0  0  0  0  0  0  0  0  0
   -2.7070   -1.6770    1.0897 H   0  0  0  0  0  0  0  0  0  0  0  0
   -2.3659    0.8994   -1.6562 H   0  0  0  0  0  0  0  0  0  0  0  0
   -2.2568    1.6057    0.0613 H   0  0  0  0  0  0  0  0  0  0  0  0
  1  2  2  0
  2  3  1  0
  3  4  1  0
  4  5  1  0
  5  6  1  0
  6  7  1  0
  7  8  1  0
  8  9  1  0
  9  6  1  0
  2 10  1  0
  3 11  1  0
  3 12  1  0
  4 13  1  0
  4 14  1  0
  5 15  1  0
  5 16  1  0
  6 17  1  0
  7 18  1  0
  7 19  1  0
  9 20  1  0
  9 21  1  0
M  END
