
     RDKit          3D

 13 14  0  0  0  0  0  0  0  0999 V2000
    2.3811   -0.0603    1.1671 O   0  0  0  0  0  0  0  0  0  0  0  0
    1.5294    0.4191    0.4472 C   0  0  0  0  0  0  0  0  0  0  0  0
    0.6544   -0.4458   -0.3692 C   0  0  0  0  0  0  0  0  0  0  0  0
   -0.5044    0.2662   -0.9925 C   0  0  0  0  0  0  0  0  0  0  0  0
   -1.0576    0.4743    0.3737 C   0  0  0  0  0  0  0  0  0  0  0  0
   -0.5940   -0.9454    0.2770 C   0  0  0  0  0  0  0  0  0  0  0  0
   -1.1530   -0.9660   -0.9925 O   0  0  0  0  0  0  0  0  0  0  0  0
    1.3876    1.4874    0.3833 H   0  0  0  0  0  0  0  0  0  0  0  0
    1.1930   -1.1648   -1.0129 H   0  0  0  0  0  0  0  0  0  0  0  0
   -0.4760    0.9221   -1.7567 H   0  0  0  0  0  0  0  0  0  0  0  0
   -0.5152    1.1444    1.0350 H   0  0  0  0  0  0  0  0  0  0  0  0
   -2.1689    0.5297    0.4580 H   0  0  0  0  0  0  0  0  0  0  0  0
   -0.6763   -1.6609    0.9824 H   0  0  0  0  0  0  0  0  0  0  0  0
  1  2  2  0
  2  3  1  0
  3  4  1  0
  4  5  1  0
  5  6  1  0
  6  7  1  0
  6  3  1  0
  7  4  1  0
  2  8  1  0
  3  9  1  0
  4 10  1  0
  5 11  1  0
  5 12  1  0
  6 13  1  0
M  END
