
     RDKit          3D

 18 19  0  0  0  0  0  0  0  0999 V2000
    2.9543   -1.2103    0.5139 O   0  0  0  0  0  0  0  0  0  0  0  0
    2.4847   -0.4464   -0.2942 C   0  0  0  0  0  0  0  0  0  0  0  0
    1.5363    0.6424    0.0715 C   0  0  0  0  0  0  0  0  0  0  0  0
    0.1895    0.2668   -0.4787 C   0  0  0  0  0  0  0  0  0  0  0  0
   -0.9601    1.2064   -0.2181 C   0  0  0  0  0  0  0  0  0  0  0  0
   -1.8231   -0.0656   -0.1437 C   0  0  0  0  0  0  0  0  0  0  0  0
   -1.6103   -0.8262    1.0858 C   0  0  0  0  0  0  0  0  0  0  0  0
   -0.5170   -0.8829    0.1147 C   0  0  0  0  0  0  0  0  0  0  0  0
    2.7791   -0.5576   -1.3568 H   0  0  0  0  0  0  0  0  0  0  0  0
    1.8754    1.5623   -0.3835 H   0  0  0  0  0  0  0  0  0  0  0  0
    1.4886    0.7295    1.1776 H   0  0  0  0  0  0  0  0  0  0  0  0
    0.3005    0.1801   -1.6034 H   0  0  0  0  0  0  0  0  0  0  0  0
   -0.9925    1.7102    0.7491 H   0  0  0  0  0  0  0  0  0  0  0  0
   -1.2154    1.8712   -1.0821 H   0  0  0  0  0  0  0  0  0  0  0  0
   -2.3557   -0.4237   -1.0132 H   0  0  0  0  0  0  0  0  0  0  0  0
   -2.2061   -1.7179    1.2652 H   0  0  0  0  0  0  0  0  0  0  0  0
   -1.5152   -0.2004    2.0294 H   0  0  0  0  0  0  0  0  0  0  0  0
   -0.4131   -1.8381   -0.4336 H   0  0  0  0  0  0  0  0  0  0  0  0
  1  2  2  0
  2  3  1  0
  3  4  1  0
  4  5  1  0
  5  6  1  0
  6  7  1  0
  7  8  1  0
  8  4  1  0
  8  6  1  0
  2  9  1  0
  3 10  1  0
  3 11  1  0
  4 12  1  0
  5 13  1  0
  5 14  1  0
  6 15  1  0
  7 16  1  0
  7 17  1  0
  8 18  1  0
M  END
