
     RDKit          3D

 13 13  0  0  0  0  0  0  0  0999 V2000
    2.8976    1.0266   -0.1870 O   0  0  0  0  0  0  0  0  0  0  0  0
    2.2233   -0.0089    0.0044 C   0  0  0  0  0  0  0  0  0  0  0  0
    0.7716    0.0245   -0.0028 C   0  0  0  0  0  0  0  0  0  0  0  0
    0.0025   -1.0328    0.1926 C   0  0  0  0  0  0  0  0  0  0  0  0
   -1.4290   -0.6897    0.1281 C   0  0  0  0  0  0  0  0  0  0  0  0
   -1.4774    0.7686   -0.1421 C   0  0  0  0  0  0  0  0  0  0  0  0
   -2.5059    1.4963   -0.2776 O   0  0  0  0  0  0  0  0  0  0  0  0
   -0.0907    1.1982   -0.2208 C   0  0  0  0  0  0  0  0  0  0  0  0
    0.3090    2.3675   -0.4371 O   0  0  0  0  0  0  0  0  0  0  0  0
    2.7225   -0.9415    0.1775 H   0  0  0  0  0  0  0  0  0  0  0  0
    0.3688   -2.0560    0.3824 H   0  0  0  0  0  0  0  0  0  0  0  0
   -1.9125   -1.2178   -0.7190 H   0  0  0  0  0  0  0  0  0  0  0  0
   -1.8798   -0.9351    1.1013 H   0  0  0  0  0  0  0  0  0  0  0  0
  1  2  2  0
  2  3  1  0
  3  4  2  0
  4  5  1  0
  5  6  1  0
  6  7  2  0
  6  8  1  0
  8  9  2  0
  8  3  1  0
  2 10  1  0
  4 11  1  0
  5 12  1  0
  5 13  1  0
M  END
