
     RDKit          3D

 16 16  0  0  0  0  0  0  0  0999 V2000
    3.1078   -0.4246   -0.0814 O   0  0  0  0  0  0  0  0  0  0  0  0
    2.2747    0.1747    0.5483 C   0  0  0  0  0  0  0  0  0  0  0  0
    0.8963    0.2589    0.0403 C   0  0  0  0  0  0  0  0  0  0  0  0
    0.2971   -1.1349   -0.1711 C   0  0  0  0  0  0  0  0  0  0  0  0
   -1.1307   -0.9673   -0.5181 C   0  0  0  0  0  0  0  0  0  0  0  0
   -1.7980    0.0953   -0.1662 C   0  0  0  0  0  0  0  0  0  0  0  0
   -1.1544    1.1798    0.5963 C   0  0  0  0  0  0  0  0  0  0  0  0
    0.1526    0.9871    0.9322 O   0  0  0  0  0  0  0  0  0  0  0  0
    2.5407    0.6390    1.4670 H   0  0  0  0  0  0  0  0  0  0  0  0
    0.9236    0.7170   -0.9761 H   0  0  0  0  0  0  0  0  0  0  0  0
    0.8437   -1.6067   -1.0100 H   0  0  0  0  0  0  0  0  0  0  0  0
    0.4107   -1.7765    0.7033 H   0  0  0  0  0  0  0  0  0  0  0  0
   -1.5748   -1.8017   -1.0892 H   0  0  0  0  0  0  0  0  0  0  0  0
   -2.8285    0.1958   -0.4273 H   0  0  0  0  0  0  0  0  0  0  0  0
   -1.2463    2.1740    0.0601 H   0  0  0  0  0  0  0  0  0  0  0  0
   -1.7145    1.2900    1.5678 H   0  0  0  0  0  0  0  0  0  0  0  0
  1  2  2  0
  2  3  1  0
  3  4  1  0
  4  5  1  0
  5  6  2  0
  6  7  1  0
  7  8  1  0
  8  3  1  0
  2  9  1  0
  3 10  1  0
  4 11  1  0
  4 12  1  0
  5 13  1  0
  6 14  1  0
  7 15  1  0
  7 16  1  0
M  END
