
     RDKit          3D

 17 18  0  0  0  0  0  0  0  0999 V2000
    0.1625    2.2770    0.4790 O   0  0  0  0  0  0  0  0  0  0  0  0
    0.9751    1.4406    0.1926 C   0  0  0  0  0  0  0  0  0  0  0  0
    0.5797    0.1425   -0.3483 C   0  0  0  0  0  0  0  0  0  0  0  0
   -0.5815    0.1891   -1.2657 C   0  0  0  0  0  0  0  0  0  0  0  0
   -1.7190    0.2231   -0.2380 C   0  0  0  0  0  0  0  0  0  0  0  0
   -1.2016   -0.7910    0.7170 C   0  0  0  0  0  0  0  0  0  0  0  0
    0.1006   -0.8717    0.6821 C   0  0  0  0  0  0  0  0  0  0  0  0
    1.5952   -1.0884    0.7583 C   0  0  0  0  0  0  0  0  0  0  0  0
    1.6546   -0.7086   -0.6409 O   0  0  0  0  0  0  0  0  0  0  0  0
    2.0269    1.6600    0.3413 H   0  0  0  0  0  0  0  0  0  0  0  0
   -0.6883   -0.7636   -1.8492 H   0  0  0  0  0  0  0  0  0  0  0  0
   -0.6110    1.0753   -1.9238 H   0  0  0  0  0  0  0  0  0  0  0  0
   -1.7692    1.1942    0.2268 H   0  0  0  0  0  0  0  0  0  0  0  0
   -2.6748   -0.0997   -0.7102 H   0  0  0  0  0  0  0  0  0  0  0  0
   -1.8277   -1.3890    1.3621 H   0  0  0  0  0  0  0  0  0  0  0  0
    1.9085   -2.1395    0.8107 H   0  0  0  0  0  0  0  0  0  0  0  0
    2.0698   -0.3504    1.4062 H   0  0  0  0  0  0  0  0  0  0  0  0
  1  2  2  0
  2  3  1  0
  3  4  1  0
  4  5  1  0
  5  6  1  0
  6  7  2  0
  7  8  1  0
  8  9  1  0
  7  3  1  0
  9  3  1  0
  2 10  1  0
  4 11  1  0
  4 12  1  0
  5 13  1  0
  5 14  1  0
  6 15  1  0
  8 16  1  0
  8 17  1  0
M  END
