
     RDKit          3D

 19 19  0  0  0  0  0  0  0  0999 V2000
    4.1176    0.2328   -2.4612 O   0  0  0  0  0  0  0  0  0  0  0  0
    3.7855    0.3528   -1.2663 C   0  0  0  0  0  0  0  0  0  0  0  0
    2.5314   -0.2732   -0.7704 C   0  0  0  0  0  0  0  0  0  0  0  0
    1.4794    0.8227   -0.5930 C   0  0  0  0  0  0  0  0  0  0  0  0
    0.2540    0.2449   -0.1063 C   0  0  0  0  0  0  0  0  0  0  0  0
   -0.8053   -0.2528    0.3218 C   0  0  0  0  0  0  0  0  0  0  0  0
   -2.0472   -0.8264    0.8477 C   0  0  0  0  0  0  0  0  0  0  0  0
   -2.9006   -0.0521    1.7571 C   0  0  0  0  0  0  0  0  0  0  0  0
   -3.3646   -0.1683    0.3416 C   0  0  0  0  0  0  0  0  0  0  0  0
    4.4360    0.9184   -0.6335 H   0  0  0  0  0  0  0  0  0  0  0  0
    2.1507   -1.0179   -1.5102 H   0  0  0  0  0  0  0  0  0  0  0  0
    2.7506   -0.7946    0.1701 H   0  0  0  0  0  0  0  0  0  0  0  0
    1.3362    1.3379   -1.5833 H   0  0  0  0  0  0  0  0  0  0  0  0
    1.8562    1.6298    0.0763 H   0  0  0  0  0  0  0  0  0  0  0  0
   -2.0638   -1.9266    0.9870 H   0  0  0  0  0  0  0  0  0  0  0  0
   -2.6135    0.9270    2.1704 H   0  0  0  0  0  0  0  0  0  0  0  0
   -3.5427   -0.6240    2.4918 H   0  0  0  0  0  0  0  0  0  0  0  0
   -3.2230    0.7581   -0.2625 H   0  0  0  0  0  0  0  0  0  0  0  0
   -4.1369   -0.8674    0.0228 H   0  0  0  0  0  0  0  0  0  0  0  0
  1  2  2  0
  2  3  1  0
  3  4  1  0
  4  5  1  0
  5  6  3  0
  6  7  1  0
  7  8  1  0
  8  9  1  0
  9  7  1  0
  2 10  1  0
  3 11  1  0
  3 12  1  0
  4 13  1  0
  4 14  1  0
  7 15  1  0
  8 16  1  0
  8 17  1  0
  9 18  1  0
  9 19  1  0
M  END
