
     RDKit          3D

 15 15  0  0  0  0  0  0  0  0999 V2000
    2.5563    1.2411   -1.2598 O   0  0  0  0  0  0  0  0  0  0  0  0
    2.0784    0.6799   -0.2577 C   0  0  0  0  0  0  0  0  0  0  0  0
    0.6493    0.4504   -0.1795 C   0  0  0  0  0  0  0  0  0  0  0  0
   -0.2583    0.7889   -1.1056 C   0  0  0  0  0  0  0  0  0  0  0  0
   -1.5896    0.3887   -0.6576 C   0  0  0  0  0  0  0  0  0  0  0  0
   -2.7008    0.8568   -1.0155 O   0  0  0  0  0  0  0  0  0  0  0  0
   -1.3197   -0.7147    0.3324 C   0  0  0  0  0  0  0  0  0  0  0  0
   -0.0555   -0.2157    0.9739 C   0  0  0  0  0  0  0  0  0  0  0  0
    0.7372   -1.2624    1.4397 O   0  0  0  0  0  0  0  0  0  0  0  0
    2.7260    0.3733    0.5342 H   0  0  0  0  0  0  0  0  0  0  0  0
   -0.0606    1.2903   -2.0624 H   0  0  0  0  0  0  0  0  0  0  0  0
   -2.1560   -0.8292    1.0394 H   0  0  0  0  0  0  0  0  0  0  0  0
   -1.0920   -1.6411   -0.2300 H   0  0  0  0  0  0  0  0  0  0  0  0
   -0.2906    0.5220    1.7546 H   0  0  0  0  0  0  0  0  0  0  0  0
    0.7759   -1.9282    0.6938 H   0  0  0  0  0  0  0  0  0  0  0  0
  1  2  2  0
  2  3  1  0
  3  4  2  0
  4  5  1  0
  5  6  2  0
  5  7  1  0
  7  8  1  0
  8  9  1  0
  8  3  1  0
  2 10  1  0
  4 11  1  0
  7 12  1  0
  7 13  1  0
  8 14  1  0
  9 15  1  0
M  END
