
     RDKit          3D

 19 19  0  0  0  0  0  0  0  0999 V2000
    2.5640    1.1924    1.0909 O   0  0  0  0  0  0  0  0  0  0  0  0
    2.4576    0.7273   -0.0531 C   0  0  0  0  0  0  0  0  0  0  0  0
    2.0901   -0.6849   -0.2666 C   0  0  0  0  0  0  0  0  0  0  0  0
    0.6494   -0.9721    0.0199 C   0  0  0  0  0  0  0  0  0  0  0  0
   -0.2730   -0.1664   -0.8575 C   0  0  0  0  0  0  0  0  0  0  0  0
   -0.8057    0.4281    0.4320 C   0  0  0  0  0  0  0  0  0  0  0  0
   -2.2564    0.0323    0.5985 C   0  0  0  0  0  0  0  0  0  0  0  0
   -3.0998    0.8712   -0.1246 O   0  0  0  0  0  0  0  0  0  0  0  0
    0.1004   -0.3463    1.1143 O   0  0  0  0  0  0  0  0  0  0  0  0
    2.6440    1.3979   -0.9060 H   0  0  0  0  0  0  0  0  0  0  0  0
    2.3629   -0.9974   -1.2960 H   0  0  0  0  0  0  0  0  0  0  0  0
    2.7460   -1.3125    0.4088 H   0  0  0  0  0  0  0  0  0  0  0  0
    0.4572   -2.0782   -0.0003 H   0  0  0  0  0  0  0  0  0  0  0  0
   -0.9929   -0.8445   -1.3953 H   0  0  0  0  0  0  0  0  0  0  0  0
    0.2167    0.5920   -1.4817 H   0  0  0  0  0  0  0  0  0  0  0  0
   -0.6509    1.4914    0.5840 H   0  0  0  0  0  0  0  0  0  0  0  0
   -2.4045   -0.9849    0.1426 H   0  0  0  0  0  0  0  0  0  0  0  0
   -2.5456   -0.0836    1.6608 H   0  0  0  0  0  0  0  0  0  0  0  0
   -3.2596    1.7383    0.3291 H   0  0  0  0  0  0  0  0  0  0  0  0
  1  2  2  0
  2  3  1  0
  3  4  1  0
  4  5  1  0
  5  6  1  0
  6  7  1  0
  7  8  1  0
  6  9  1  0
  9  4  1  0
  2 10  1  0
  3 11  1  0
  3 12  1  0
  4 13  1  0
  5 14  1  0
  5 15  1  0
  6 16  1  0
  7 17  1  0
  7 18  1  0
  8 19  1  0
M  END
