
     RDKit          3D

 17 18  0  0  0  0  0  0  0  0999 V2000
    2.3261   -1.9365   -0.5364 O   0  0  0  0  0  0  0  0  0  0  0  0
    2.0861   -0.7477   -0.5674 C   0  0  0  0  0  0  0  0  0  0  0  0
    0.8365   -0.2616    0.0652 C   0  0  0  0  0  0  0  0  0  0  0  0
    1.0235    1.0860    0.7519 C   0  0  0  0  0  0  0  0  0  0  0  0
    0.1790    0.9194   -0.4968 C   0  0  0  0  0  0  0  0  0  0  0  0
   -1.2539    1.0505   -0.2874 C   0  0  0  0  0  0  0  0  0  0  0  0
   -1.9403   -0.0140    0.0771 C   0  0  0  0  0  0  0  0  0  0  0  0
   -1.2437   -1.2824    0.2576 C   0  0  0  0  0  0  0  0  0  0  0  0
    0.0637   -1.2168    0.6309 O   0  0  0  0  0  0  0  0  0  0  0  0
    2.7530   -0.0308   -1.0408 H   0  0  0  0  0  0  0  0  0  0  0  0
    0.5004    1.1753    1.7326 H   0  0  0  0  0  0  0  0  0  0  0  0
    1.9642    1.6227    0.6643 H   0  0  0  0  0  0  0  0  0  0  0  0
    0.6018    1.3829   -1.4327 H   0  0  0  0  0  0  0  0  0  0  0  0
   -1.7496    1.9935   -0.4253 H   0  0  0  0  0  0  0  0  0  0  0  0
   -3.0316    0.0242    0.2510 H   0  0  0  0  0  0  0  0  0  0  0  0
   -1.7917   -1.8771    1.0395 H   0  0  0  0  0  0  0  0  0  0  0  0
   -1.3234   -1.8876   -0.6835 H   0  0  0  0  0  0  0  0  0  0  0  0
  1  2  2  0
  2  3  1  0
  3  4  1  0
  4  5  1  0
  5  6  1  0
  6  7  2  0
  7  8  1  0
  8  9  1  0
  5  3  1  0
  9  3  1  0
  2 10  1  0
  4 11  1  0
  4 12  1  0
  5 13  1  0
  6 14  1  0
  7 15  1  0
  8 16  1  0
  8 17  1  0
M  END
