
     RDKit          3D

 17 18  0  0  0  0  0  0  0  0999 V2000
    0.5445    2.4614    0.8204 O   0  0  0  0  0  0  0  0  0  0  0  0
   -0.1581    2.0855   -0.0911 C   0  0  0  0  0  0  0  0  0  0  0  0
   -0.0800    0.6715   -0.4971 C   0  0  0  0  0  0  0  0  0  0  0  0
    1.2958    0.1555   -0.6853 C   0  0  0  0  0  0  0  0  0  0  0  0
    1.5654   -0.7672    0.2256 C   0  0  0  0  0  0  0  0  0  0  0  0
    0.3765   -0.9558    1.1203 C   0  0  0  0  0  0  0  0  0  0  0  0
   -0.7563   -0.2363    0.4840 C   0  0  0  0  0  0  0  0  0  0  0  0
   -1.3444   -0.8006   -0.7563 C   0  0  0  0  0  0  0  0  0  0  0  0
   -0.8988    0.2861   -1.5409 O   0  0  0  0  0  0  0  0  0  0  0  0
   -0.8362    2.7350   -0.6182 H   0  0  0  0  0  0  0  0  0  0  0  0
    1.9644    0.4991   -1.4626 H   0  0  0  0  0  0  0  0  0  0  0  0
    2.4973   -1.3180    0.3300 H   0  0  0  0  0  0  0  0  0  0  0  0
    0.6097   -0.4556    2.0850 H   0  0  0  0  0  0  0  0  0  0  0  0
    0.1877   -2.0370    1.2955 H   0  0  0  0  0  0  0  0  0  0  0  0
   -1.5031    0.2338    1.1496 H   0  0  0  0  0  0  0  0  0  0  0  0
   -2.4719   -0.7753   -0.7650 H   0  0  0  0  0  0  0  0  0  0  0  0
   -0.9925   -1.7821   -1.0937 H   0  0  0  0  0  0  0  0  0  0  0  0
  1  2  2  0
  2  3  1  0
  3  4  1  0
  4  5  2  0
  5  6  1  0
  6  7  1  0
  7  8  1  0
  8  9  1  0
  7  3  1  0
  9  3  1  0
  2 10  1  0
  4 11  1  0
  5 12  1  0
  6 13  1  0
  6 14  1  0
  7 15  1  0
  8 16  1  0
  8 17  1  0
M  END
