
     RDKit          3D

 15 16  0  0  0  0  0  0  0  0999 V2000
    2.2987    0.9112   -0.7723 O   0  0  0  0  0  0  0  0  0  0  0  0
    1.6884    0.6139    0.2362 C   0  0  0  0  0  0  0  0  0  0  0  0
    0.5150   -0.2776    0.2654 C   0  0  0  0  0  0  0  0  0  0  0  0
    0.4069   -1.4727   -0.5731 C   0  0  0  0  0  0  0  0  0  0  0  0
   -0.4342   -0.2858   -0.8854 C   0  0  0  0  0  0  0  0  0  0  0  0
   -1.4709    0.1945    0.1124 C   0  0  0  0  0  0  0  0  0  0  0  0
   -1.6375    1.5862   -0.0580 O   0  0  0  0  0  0  0  0  0  0  0  0
   -0.5646   -0.0543    1.2514 C   0  0  0  0  0  0  0  0  0  0  0  0
   -0.6007   -0.0833    2.4531 O   0  0  0  0  0  0  0  0  0  0  0  0
    2.0280    1.0308    1.1776 H   0  0  0  0  0  0  0  0  0  0  0  0
   -0.0889   -2.4059   -0.2206 H   0  0  0  0  0  0  0  0  0  0  0  0
    1.2252   -1.6665   -1.2788 H   0  0  0  0  0  0  0  0  0  0  0  0
   -0.2396    0.3154   -1.7804 H   0  0  0  0  0  0  0  0  0  0  0  0
   -2.4216   -0.3642    0.1050 H   0  0  0  0  0  0  0  0  0  0  0  0
   -0.7043    1.9583   -0.0325 H   0  0  0  0  0  0  0  0  0  0  0  0
  1  2  2  0
  2  3  1  0
  3  4  1  0
  4  5  1  0
  5  6  1  0
  6  7  1  0
  6  8  1  0
  8  9  2  0
  5  3  1  0
  8  3  1  0
  2 10  1  0
  4 11  1  0
  4 12  1  0
  5 13  1  0
  6 14  1  0
  7 15  1  0
M  END
