
     RDKit          3D

 17 18  0  0  0  0  0  0  0  0999 V2000
   -0.1966   -1.1202    2.0749 O   0  0  0  0  0  0  0  0  0  0  0  0
   -1.0322   -0.6269    1.3316 C   0  0  0  0  0  0  0  0  0  0  0  0
   -0.9458   -0.5813   -0.1357 C   0  0  0  0  0  0  0  0  0  0  0  0
    0.3278   -1.1431   -0.6492 C   0  0  0  0  0  0  0  0  0  0  0  0
    1.4452   -0.2729   -0.0676 C   0  0  0  0  0  0  0  0  0  0  0  0
    1.2294    1.0452   -0.0289 O   0  0  0  0  0  0  0  0  0  0  0  0
   -0.0563    1.5245    0.1204 C   0  0  0  0  0  0  0  0  0  0  0  0
   -0.9302    0.8074   -0.8298 C   0  0  0  0  0  0  0  0  0  0  0  0
   -1.9559   -0.0039   -0.7380 O   0  0  0  0  0  0  0  0  0  0  0  0
   -1.8945   -0.1960    1.8135 H   0  0  0  0  0  0  0  0  0  0  0  0
    0.3297   -1.0512   -1.7556 H   0  0  0  0  0  0  0  0  0  0  0  0
    0.5252   -2.1834   -0.3809 H   0  0  0  0  0  0  0  0  0  0  0  0
    1.7905   -0.7077    0.9155 H   0  0  0  0  0  0  0  0  0  0  0  0
    2.3260   -0.4737   -0.7505 H   0  0  0  0  0  0  0  0  0  0  0  0
   -0.0242    2.6082   -0.1986 H   0  0  0  0  0  0  0  0  0  0  0  0
   -0.4231    1.5248    1.1591 H   0  0  0  0  0  0  0  0  0  0  0  0
   -0.5151    0.8501   -1.8804 H   0  0  0  0  0  0  0  0  0  0  0  0
  1  2  2  0
  2  3  1  0
  3  4  1  0
  4  5  1  0
  5  6  1  0
  6  7  1  0
  7  8  1  0
  8  9  1  0
  8  3  1  0
  9  3  1  0
  2 10  1  0
  4 11  1  0
  4 12  1  0
  5 13  1  0
  5 14  1  0
  7 15  1  0
  7 16  1  0
  8 17  1  0
M  END
