
     RDKit          3D

 14 15  0  0  0  0  0  0  0  0999 V2000
    2.7383    1.1214   -0.3988 O   0  0  0  0  0  0  0  0  0  0  0  0
    2.0656    0.3255    0.2162 C   0  0  0  0  0  0  0  0  0  0  0  0
    0.6218    0.1952   -0.0648 C   0  0  0  0  0  0  0  0  0  0  0  0
   -0.3604    0.2024    1.0641 C   0  0  0  0  0  0  0  0  0  0  0  0
   -1.6134   -0.2971    0.4688 C   0  0  0  0  0  0  0  0  0  0  0  0
   -1.4052   -0.6035   -0.7940 C   0  0  0  0  0  0  0  0  0  0  0  0
    0.0010   -0.3413   -1.1698 C   0  0  0  0  0  0  0  0  0  0  0  0
    0.2118    1.1304   -1.1309 O   0  0  0  0  0  0  0  0  0  0  0  0
    2.5822   -0.2643    0.9623 H   0  0  0  0  0  0  0  0  0  0  0  0
   -0.4829    1.2240    1.4973 H   0  0  0  0  0  0  0  0  0  0  0  0
   -0.0084   -0.4949    1.8728 H   0  0  0  0  0  0  0  0  0  0  0  0
   -2.5864   -0.3955    1.0186 H   0  0  0  0  0  0  0  0  0  0  0  0
   -2.1786   -0.9966   -1.4578 H   0  0  0  0  0  0  0  0  0  0  0  0
    0.4146   -0.8058   -2.0841 H   0  0  0  0  0  0  0  0  0  0  0  0
  1  2  2  0
  2  3  1  0
  3  4  1  0
  4  5  1  0
  5  6  2  0
  6  7  1  0
  7  8  1  0
  7  3  1  0
  8  3  1  0
  2  9  1  0
  4 10  1  0
  4 11  1  0
  5 12  1  0
  6 13  1  0
  7 14  1  0
M  END
