
     RDKit          3D

 17 18  0  0  0  0  0  0  0  0999 V2000
    2.6465    1.2099   -0.9032 O   0  0  0  0  0  0  0  0  0  0  0  0
    2.5411    0.4970    0.0859 C   0  0  0  0  0  0  0  0  0  0  0  0
    1.6744   -0.7194   -0.0621 C   0  0  0  0  0  0  0  0  0  0  0  0
    0.2411   -0.3569   -0.0125 C   0  0  0  0  0  0  0  0  0  0  0  0
   -0.6295   -0.8016    0.8807 C   0  0  0  0  0  0  0  0  0  0  0  0
   -1.9770   -0.2382    0.6407 C   0  0  0  0  0  0  0  0  0  0  0  0
   -1.7826    0.8109   -0.4350 C   0  0  0  0  0  0  0  0  0  0  0  0
   -0.8105    1.7723   -0.3262 O   0  0  0  0  0  0  0  0  0  0  0  0
   -0.4542    0.5615   -0.9474 C   0  0  0  0  0  0  0  0  0  0  0  0
    3.0309    0.7070    1.0219 H   0  0  0  0  0  0  0  0  0  0  0  0
    1.9651   -1.1589   -1.0519 H   0  0  0  0  0  0  0  0  0  0  0  0
    1.9598   -1.4249    0.7494 H   0  0  0  0  0  0  0  0  0  0  0  0
   -0.4416   -1.4972    1.7142 H   0  0  0  0  0  0  0  0  0  0  0  0
   -2.5863   -1.0430    0.1772 H   0  0  0  0  0  0  0  0  0  0  0  0
   -2.4486    0.1805    1.5536 H   0  0  0  0  0  0  0  0  0  0  0  0
   -2.6781    0.9734   -1.0694 H   0  0  0  0  0  0  0  0  0  0  0  0
   -0.2505    0.5277   -2.0157 H   0  0  0  0  0  0  0  0  0  0  0  0
  1  2  2  0
  2  3  1  0
  3  4  1  0
  4  5  2  0
  5  6  1  0
  6  7  1  0
  7  8  1  0
  8  9  1  0
  9  4  1  0
  9  7  1  0
  2 10  1  0
  3 11  1  0
  3 12  1  0
  5 13  1  0
  6 14  1  0
  6 15  1  0
  7 16  1  0
  9 17  1  0
M  END
