
     RDKit          3D

 17 17  0  0  0  0  0  0  0  0999 V2000
    3.7759    0.1598   -0.1423 O   0  0  0  0  0  0  0  0  0  0  0  0
    2.7303    0.4167    0.3987 C   0  0  0  0  0  0  0  0  0  0  0  0
    1.4941   -0.2362   -0.0687 C   0  0  0  0  0  0  0  0  0  0  0  0
    0.2845    0.2269    0.7486 C   0  0  0  0  0  0  0  0  0  0  0  0
   -0.9101   -0.5075    0.1772 C   0  0  0  0  0  0  0  0  0  0  0  0
   -2.2176   -0.1892    0.8501 C   0  0  0  0  0  0  0  0  0  0  0  0
   -2.7876   -0.2777   -0.4630 O   0  0  0  0  0  0  0  0  0  0  0  0
   -1.5781    0.1751   -0.9466 C   0  0  0  0  0  0  0  0  0  0  0  0
   -1.2366    0.8665   -1.9237 O   0  0  0  0  0  0  0  0  0  0  0  0
    2.6979    1.1113    1.2101 H   0  0  0  0  0  0  0  0  0  0  0  0
    1.2690   -0.0206   -1.1466 H   0  0  0  0  0  0  0  0  0  0  0  0
    1.5816   -1.3309    0.0079 H   0  0  0  0  0  0  0  0  0  0  0  0
    0.4367   -0.0674    1.7874 H   0  0  0  0  0  0  0  0  0  0  0  0
    0.1656    1.3243    0.6376 H   0  0  0  0  0  0  0  0  0  0  0  0
   -0.7815   -1.5789    0.0357 H   0  0  0  0  0  0  0  0  0  0  0  0
   -2.3258    0.8661    1.1920 H   0  0  0  0  0  0  0  0  0  0  0  0
   -2.5984   -0.9381    1.5627 H   0  0  0  0  0  0  0  0  0  0  0  0
  1  2  2  0
  2  3  1  0
  3  4  1  0
  4  5  1  0
  5  6  1  0
  6  7  1  0
  7  8  1  0
  8  9  2  0
  8  5  1  0
  2 10  1  0
  3 11  1  0
  3 12  1  0
  4 13  1  0
  4 14  1  0
  5 15  1  0
  6 16  1  0
  6 17  1  0
M  END
