
     RDKit          3D

 15 15  0  0  0  0  0  0  0  0999 V2000
   -2.1890    1.8605   -0.8334 O   0  0  0  0  0  0  0  0  0  0  0  0
   -2.2533    0.6805   -0.5746 C   0  0  0  0  0  0  0  0  0  0  0  0
   -1.0424   -0.1340   -0.5231 C   0  0  0  0  0  0  0  0  0  0  0  0
   -0.7643   -0.6929    0.8285 C   0  0  0  0  0  0  0  0  0  0  0  0
    0.5519   -0.7480    0.9945 C   0  0  0  0  0  0  0  0  0  0  0  0
    1.1537   -0.2163   -0.2683 C   0  0  0  0  0  0  0  0  0  0  0  0
    2.3241    0.6330    0.0142 C   0  0  0  0  0  0  0  0  0  0  0  0
    2.2683    1.8213   -0.2130 O   0  0  0  0  0  0  0  0  0  0  0  0
    0.1060    0.5762   -0.7913 O   0  0  0  0  0  0  0  0  0  0  0  0
   -3.2201    0.2522   -0.3850 H   0  0  0  0  0  0  0  0  0  0  0  0
   -1.1351   -1.0184   -1.2234 H   0  0  0  0  0  0  0  0  0  0  0  0
   -1.4621   -1.0204    1.5988 H   0  0  0  0  0  0  0  0  0  0  0  0
    1.0684   -1.1082    1.8735 H   0  0  0  0  0  0  0  0  0  0  0  0
    1.3726   -1.0809   -0.9177 H   0  0  0  0  0  0  0  0  0  0  0  0
    3.2214    0.1955    0.4203 H   0  0  0  0  0  0  0  0  0  0  0  0
  1  2  2  0
  2  3  1  0
  3  4  1  0
  4  5  2  0
  5  6  1  0
  6  7  1  0
  7  8  2  0
  6  9  1  0
  9  3  1  0
  2 10  1  0
  3 11  1  0
  4 12  1  0
  5 13  1  0
  6 14  1  0
  7 15  1  0
M  END
