
     RDKit          3D

 19 20  0  0  0  0  0  0  0  0999 V2000
    3.5284    0.0277    0.0618 O   0  0  0  0  0  0  0  0  0  0  0  0
    2.3786    0.2613   -0.2336 C   0  0  0  0  0  0  0  0  0  0  0  0
    1.3185   -0.5977    0.2924 C   0  0  0  0  0  0  0  0  0  0  0  0
    0.0246   -0.1869   -0.1498 C   0  0  0  0  0  0  0  0  0  0  0  0
   -0.3699   -0.1233   -1.5758 C   0  0  0  0  0  0  0  0  0  0  0  0
   -1.7178    0.3066   -1.4447 O   0  0  0  0  0  0  0  0  0  0  0  0
   -1.8749    0.4250   -0.0869 C   0  0  0  0  0  0  0  0  0  0  0  0
   -0.5841    1.1086    0.3934 C   0  0  0  0  0  0  0  0  0  0  0  0
   -1.2169   -0.8481    0.4685 C   0  0  0  0  0  0  0  0  0  0  0  0
    2.1743    1.0957   -0.8754 H   0  0  0  0  0  0  0  0  0  0  0  0
    1.3770   -0.5493    1.4089 H   0  0  0  0  0  0  0  0  0  0  0  0
    1.4812   -1.6831    0.0586 H   0  0  0  0  0  0  0  0  0  0  0  0
    0.1406    0.6539   -2.1679 H   0  0  0  0  0  0  0  0  0  0  0  0
   -0.3359   -1.1229   -2.0679 H   0  0  0  0  0  0  0  0  0  0  0  0
   -2.7870    0.7370    0.3491 H   0  0  0  0  0  0  0  0  0  0  0  0
   -0.3169    2.0128   -0.1477 H   0  0  0  0  0  0  0  0  0  0  0  0
   -0.5335    1.1418    1.4945 H   0  0  0  0  0  0  0  0  0  0  0  0
   -1.5273   -1.7733   -0.0502 H   0  0  0  0  0  0  0  0  0  0  0  0
   -1.1591   -0.8858    1.5638 H   0  0  0  0  0  0  0  0  0  0  0  0
  1  2  2  0
  2  3  1  0
  3  4  1  0
  4  5  1  0
  5  6  1  0
  6  7  1  0
  7  8  1  0
  7  9  1  0
  8  4  1  0
  9  4  1  0
  2 10  1  0
  3 11  1  0
  3 12  1  0
  5 13  1  0
  5 14  1  0
  7 15  1  0
  8 16  1  0
  8 17  1  0
  9 18  1  0
  9 19  1  0
M  END
