
     RDKit          3D

 14 14  0  0  0  0  0  0  0  0999 V2000
    2.2706    0.8897    1.1541 O   0  0  0  0  0  0  0  0  0  0  0  0
    2.3573    0.1322    0.1387 C   0  0  0  0  0  0  0  0  0  0  0  0
    1.2132   -0.5974   -0.3589 C   0  0  0  0  0  0  0  0  0  0  0  0
    1.3387   -1.3313   -1.3590 O   0  0  0  0  0  0  0  0  0  0  0  0
   -0.0726   -0.4702    0.3091 C   0  0  0  0  0  0  0  0  0  0  0  0
   -0.8279    0.7868   -0.1473 C   0  0  0  0  0  0  0  0  0  0  0  0
   -1.9632   -0.1529    0.2847 C   0  0  0  0  0  0  0  0  0  0  0  0
   -1.1347   -1.1897   -0.2074 O   0  0  0  0  0  0  0  0  0  0  0  0
    3.3147    0.0466   -0.3468 H   0  0  0  0  0  0  0  0  0  0  0  0
   -0.0494   -0.4565    1.4244 H   0  0  0  0  0  0  0  0  0  0  0  0
   -0.8552    0.9383   -1.2272 H   0  0  0  0  0  0  0  0  0  0  0  0
   -0.6744    1.6413    0.5060 H   0  0  0  0  0  0  0  0  0  0  0  0
   -2.8964   -0.0150   -0.2544 H   0  0  0  0  0  0  0  0  0  0  0  0
   -2.0208   -0.2219    1.3957 H   0  0  0  0  0  0  0  0  0  0  0  0
  1  2  2  0
  2  3  1  0
  3  4  2  0
  3  5  1  0
  5  6  1  0
  6  7  1  0
  7  8  1  0
  8  5  1  0
  2  9  1  0
  5 10  1  0
  6 11  1  0
  6 12  1  0
  7 13  1  0
  7 14  1  0
M  END
