
     RDKit          3D

 19 20  0  0  0  0  0  0  0  0999 V2000
    2.1274    1.8048    1.0646 O   0  0  0  0  0  0  0  0  0  0  0  0
    2.1724    0.7303    0.4904 C   0  0  0  0  0  0  0  0  0  0  0  0
    1.2578   -0.3996    0.7752 C   0  0  0  0  0  0  0  0  0  0  0  0
    1.5465   -1.4949   -0.0344 O   0  0  0  0  0  0  0  0  0  0  0  0
    0.2849   -1.5364   -0.6695 C   0  0  0  0  0  0  0  0  0  0  0  0
   -0.0821   -0.3317    0.1118 C   0  0  0  0  0  0  0  0  0  0  0  0
   -1.2884   -0.3498    0.9539 C   0  0  0  0  0  0  0  0  0  0  0  0
   -1.7498    0.9233    0.2286 C   0  0  0  0  0  0  0  0  0  0  0  0
   -0.4542    0.9055   -0.5975 C   0  0  0  0  0  0  0  0  0  0  0  0
    2.9306    0.6111   -0.2692 H   0  0  0  0  0  0  0  0  0  0  0  0
    1.2261   -0.6536    1.8699 H   0  0  0  0  0  0  0  0  0  0  0  0
    0.3435   -1.4242   -1.7687 H   0  0  0  0  0  0  0  0  0  0  0  0
   -0.2568   -2.4460   -0.3240 H   0  0  0  0  0  0  0  0  0  0  0  0
   -1.1962   -0.2481    2.0378 H   0  0  0  0  0  0  0  0  0  0  0  0
   -1.9641   -1.2090    0.6712 H   0  0  0  0  0  0  0  0  0  0  0  0
   -2.6099    0.7752   -0.4403 H   0  0  0  0  0  0  0  0  0  0  0  0
   -1.8187    1.7503    0.9366 H   0  0  0  0  0  0  0  0  0  0  0  0
   -0.6166    0.7855   -1.6805 H   0  0  0  0  0  0  0  0  0  0  0  0
    0.1475    1.8072   -0.3783 H   0  0  0  0  0  0  0  0  0  0  0  0
  1  2  2  0
  2  3  1  0
  3  4  1  0
  4  5  1  0
  5  6  1  0
  6  7  1  0
  7  8  1  0
  8  9  1  0
  6  3  1  0
  9  6  1  0
  2 10  1  0
  3 11  1  0
  5 12  1  0
  5 13  1  0
  7 14  1  0
  7 15  1  0
  8 16  1  0
  8 17  1  0
  9 18  1  0
  9 19  1  0
M  END
