
     RDKit          3D

 19 21  0  0  0  0  0  0  0  0999 V2000
   -2.1463    1.8253   -0.8091 O   0  0  0  0  0  0  0  0  0  0  0  0
   -1.7801    1.0693    0.0722 C   0  0  0  0  0  0  0  0  0  0  0  0
   -0.4732    0.4871    0.0602 C   0  0  0  0  0  0  0  0  0  0  0  0
    0.7258    1.3365    0.3326 C   0  0  0  0  0  0  0  0  0  0  0  0
    1.8271    0.3080    0.0228 C   0  0  0  0  0  0  0  0  0  0  0  0
    0.9824   -0.9215   -0.0979 C   0  0  0  0  0  0  0  0  0  0  0  0
   -0.1186   -0.5096   -1.0051 C   0  0  0  0  0  0  0  0  0  0  0  0
   -0.9978   -1.4628   -0.2297 C   0  0  0  0  0  0  0  0  0  0  0  0
   -0.2003   -0.7621    0.8280 C   0  0  0  0  0  0  0  0  0  0  0  0
   -2.4916    0.8631    0.8592 H   0  0  0  0  0  0  0  0  0  0  0  0
    0.8133    2.2228   -0.3115 H   0  0  0  0  0  0  0  0  0  0  0  0
    0.7637    1.5932    1.4139 H   0  0  0  0  0  0  0  0  0  0  0  0
    2.2474    0.5424   -0.9738 H   0  0  0  0  0  0  0  0  0  0  0  0
    2.5773    0.2631    0.8206 H   0  0  0  0  0  0  0  0  0  0  0  0
    1.4403   -1.8799   -0.1888 H   0  0  0  0  0  0  0  0  0  0  0  0
   -0.1138   -0.3714   -1.9944 H   0  0  0  0  0  0  0  0  0  0  0  0
   -2.0738   -1.1846   -0.1951 H   0  0  0  0  0  0  0  0  0  0  0  0
   -0.7676   -2.5083   -0.4196 H   0  0  0  0  0  0  0  0  0  0  0  0
   -0.2141   -0.9107    1.8153 H   0  0  0  0  0  0  0  0  0  0  0  0
  1  2  2  0
  2  3  1  0
  3  4  1  0
  4  5  1  0
  5  6  1  0
  6  7  1  0
  7  8  1  0
  8  9  1  0
  7  3  1  0
  9  3  1  0
  9  6  1  0
  2 10  1  0
  4 11  1  0
  4 12  1  0
  5 13  1  0
  5 14  1  0
  6 15  1  0
  7 16  1  0
  8 17  1  0
  8 18  1  0
  9 19  1  0
M  END
