
     RDKit          3D

 16 16  0  0  0  0  0  0  0  0999 V2000
    3.0294   -0.2511   -1.2738 O   0  0  0  0  0  0  0  0  0  0  0  0
    2.6054   -0.1290   -0.1325 C   0  0  0  0  0  0  0  0  0  0  0  0
    1.4801    0.7490    0.2103 C   0  0  0  0  0  0  0  0  0  0  0  0
    0.1534    0.2065   -0.2493 C   0  0  0  0  0  0  0  0  0  0  0  0
   -0.8747    1.0770    0.1006 O   0  0  0  0  0  0  0  0  0  0  0  0
   -1.9799    0.3362   -0.3274 C   0  0  0  0  0  0  0  0  0  0  0  0
   -1.5878   -1.0481    0.1423 C   0  0  0  0  0  0  0  0  0  0  0  0
   -0.2156   -0.9445    0.4479 O   0  0  0  0  0  0  0  0  0  0  0  0
    3.1005   -0.7097    0.6611 H   0  0  0  0  0  0  0  0  0  0  0  0
    1.6317    1.7084   -0.3387 H   0  0  0  0  0  0  0  0  0  0  0  0
    1.4411    0.9773    1.2789 H   0  0  0  0  0  0  0  0  0  0  0  0
    0.0916   -0.0049   -1.3163 H   0  0  0  0  0  0  0  0  0  0  0  0
   -2.9205    0.6818    0.1393 H   0  0  0  0  0  0  0  0  0  0  0  0
   -1.9917    0.4258   -1.4264 H   0  0  0  0  0  0  0  0  0  0  0  0
   -2.1891   -1.2539    1.0503 H   0  0  0  0  0  0  0  0  0  0  0  0
   -1.7739   -1.8207   -0.6156 H   0  0  0  0  0  0  0  0  0  0  0  0
  1  2  2  0
  2  3  1  0
  3  4  1  0
  4  5  1  0
  5  6  1  0
  6  7  1  0
  7  8  1  0
  8  4  1  0
  2  9  1  0
  3 10  1  0
  3 11  1  0
  4 12  1  0
  6 13  1  0
  6 14  1  0
  7 15  1  0
  7 16  1  0
M  END
