
     RDKit          3D

 17 18  0  0  0  0  0  0  0  0999 V2000
    3.0772    0.5262   -0.3340 O   0  0  0  0  0  0  0  0  0  0  0  0
    2.3770   -0.4346    0.0948 C   0  0  0  0  0  0  0  0  0  0  0  0
    0.9257   -0.3417    0.1689 C   0  0  0  0  0  0  0  0  0  0  0  0
    0.2428    0.7090   -0.1898 C   0  0  0  0  0  0  0  0  0  0  0  0
   -0.3273    2.0025   -0.6522 C   0  0  0  0  0  0  0  0  0  0  0  0
   -1.4565    1.2456   -1.0587 O   0  0  0  0  0  0  0  0  0  0  0  0
   -1.2327    0.4614    0.0319 C   0  0  0  0  0  0  0  0  0  0  0  0
   -1.2723   -1.0392   -0.1329 C   0  0  0  0  0  0  0  0  0  0  0  0
   -0.0031   -1.4142    0.6522 C   0  0  0  0  0  0  0  0  0  0  0  0
    2.8339   -1.3575    0.4208 H   0  0  0  0  0  0  0  0  0  0  0  0
    0.2115    2.4873   -1.4688 H   0  0  0  0  0  0  0  0  0  0  0  0
   -0.5346    2.6405    0.2462 H   0  0  0  0  0  0  0  0  0  0  0  0
   -1.6309    0.8695    0.9565 H   0  0  0  0  0  0  0  0  0  0  0  0
   -1.1691   -1.2653   -1.2008 H   0  0  0  0  0  0  0  0  0  0  0  0
   -2.1733   -1.4384    0.3451 H   0  0  0  0  0  0  0  0  0  0  0  0
   -0.2127   -1.2340    1.7154 H   0  0  0  0  0  0  0  0  0  0  0  0
    0.3444   -2.4169    0.4055 H   0  0  0  0  0  0  0  0  0  0  0  0
  1  2  2  0
  2  3  1  0
  3  4  2  0
  4  5  1  0
  5  6  1  0
  6  7  1  0
  7  8  1  0
  8  9  1  0
  9  3  1  0
  7  4  1  0
  2 10  1  0
  5 11  1  0
  5 12  1  0
  7 13  1  0
  8 14  1  0
  8 15  1  0
  9 16  1  0
  9 17  1  0
M  END
