
     RDKit          3D

 17 17  0  0  0  0  0  0  0  0999 V2000
    2.9647   -0.8742   -0.0753 O   0  0  0  0  0  0  0  0  0  0  0  0
    1.7675   -1.0492    0.1294 C   0  0  0  0  0  0  0  0  0  0  0  0
    0.8513    0.0828   -0.0902 C   0  0  0  0  0  0  0  0  0  0  0  0
    1.5416    1.2286   -0.5186 O   0  0  0  0  0  0  0  0  0  0  0  0
   -0.1852   -0.3344   -1.1101 C   0  0  0  0  0  0  0  0  0  0  0  0
   -1.4453   -0.4827   -0.2888 C   0  0  0  0  0  0  0  0  0  0  0  0
   -1.3022    0.6740    0.6775 C   0  0  0  0  0  0  0  0  0  0  0  0
    0.1017    0.4730    1.1356 C   0  0  0  0  0  0  0  0  0  0  0  0
    0.5986    0.5818    2.2322 O   0  0  0  0  0  0  0  0  0  0  0  0
    1.3763   -1.9855    0.4575 H   0  0  0  0  0  0  0  0  0  0  0  0
    1.1365    2.0587   -0.1588 H   0  0  0  0  0  0  0  0  0  0  0  0
    0.0475   -1.3135   -1.5692 H   0  0  0  0  0  0  0  0  0  0  0  0
   -0.3260    0.4837   -1.8150 H   0  0  0  0  0  0  0  0  0  0  0  0
   -2.3252   -0.3681   -0.9495 H   0  0  0  0  0  0  0  0  0  0  0  0
   -1.4549   -1.4146    0.2942 H   0  0  0  0  0  0  0  0  0  0  0  0
   -1.3861    1.6257    0.1074 H   0  0  0  0  0  0  0  0  0  0  0  0
   -1.9608    0.6140    1.5416 H   0  0  0  0  0  0  0  0  0  0  0  0
  1  2  2  0
  2  3  1  0
  3  4  1  0
  3  5  1  0
  5  6  1  0
  6  7  1  0
  7  8  1  0
  8  9  2  0
  8  3  1  0
  2 10  1  0
  4 11  1  0
  5 12  1  0
  5 13  1  0
  6 14  1  0
  6 15  1  0
  7 16  1  0
  7 17  1  0
M  END
