
     RDKit          3D

 12 11  0  0  0  0  0  0  0  0999 V2000
    2.1234    2.7185    0.4237 O   0  0  0  0  0  0  0  0  0  0  0  0
    2.4842    1.5994   -0.0167 C   0  0  0  0  0  0  0  0  0  0  0  0
    1.4650    0.6515   -0.3478 C   0  0  0  0  0  0  0  0  0  0  0  0
    0.5870   -0.1446   -0.6384 C   0  0  0  0  0  0  0  0  0  0  0  0
   -0.4601   -1.0707   -0.9643 C   0  0  0  0  0  0  0  0  0  0  0  0
   -0.3725   -1.8821   -1.9205 O   0  0  0  0  0  0  0  0  0  0  0  0
   -1.6996   -1.0776   -0.1450 C   0  0  0  0  0  0  0  0  0  0  0  0
   -1.6184   -0.1152    0.8655 O   0  0  0  0  0  0  0  0  0  0  0  0
    3.5394    1.4085   -0.1232 H   0  0  0  0  0  0  0  0  0  0  0  0
   -2.5919   -0.8293   -0.7513 H   0  0  0  0  0  0  0  0  0  0  0  0
   -1.8983   -2.0401    0.3409 H   0  0  0  0  0  0  0  0  0  0  0  0
   -1.5584    0.7816    0.4625 H   0  0  0  0  0  0  0  0  0  0  0  0
  1  2  2  0
  2  3  1  0
  3  4  3  0
  4  5  1  0
  5  6  2  0
  5  7  1  0
  7  8  1  0
  2  9  1  0
  7 10  1  0
  7 11  1  0
  8 12  1  0
M  END
