
     RDKit          3D

 23 23  0  0  0  0  0  0  0  0999 V2000
    2.2537   -0.1672    1.6243 O   0  0  0  0  0  0  0  0  0  0  0  0
    1.8452   -0.8651    0.7256 C   0  0  0  0  0  0  0  0  0  0  0  0
    1.4030   -0.2636   -0.5332 C   0  0  0  0  0  0  0  0  0  0  0  0
    1.0635    1.2054   -0.4134 C   0  0  0  0  0  0  0  0  0  0  0  0
   -0.0243    1.4241    0.5823 C   0  0  0  0  0  0  0  0  0  0  0  0
   -1.3994    1.0805    0.0697 C   0  0  0  0  0  0  0  0  0  0  0  0
   -1.8005   -0.3340    0.3671 C   0  0  0  0  0  0  0  0  0  0  0  0
   -0.7498   -1.3494    0.0538 C   0  0  0  0  0  0  0  0  0  0  0  0
    0.1715   -0.9832   -1.0478 C   0  0  0  0  0  0  0  0  0  0  0  0
    1.8089   -1.9297    0.8574 H   0  0  0  0  0  0  0  0  0  0  0  0
    2.2158   -0.3928   -1.2926 H   0  0  0  0  0  0  0  0  0  0  0  0
    1.9476    1.7991   -0.0869 H   0  0  0  0  0  0  0  0  0  0  0  0
    0.7927    1.5712   -1.4227 H   0  0  0  0  0  0  0  0  0  0  0  0
    0.1606    0.8650    1.4970 H   0  0  0  0  0  0  0  0  0  0  0  0
   -0.0128    2.5192    0.8552 H   0  0  0  0  0  0  0  0  0  0  0  0
   -2.1149    1.7421    0.6025 H   0  0  0  0  0  0  0  0  0  0  0  0
   -1.5159    1.2625   -1.0039 H   0  0  0  0  0  0  0  0  0  0  0  0
   -2.6984   -0.5616   -0.2409 H   0  0  0  0  0  0  0  0  0  0  0  0
   -2.1267   -0.3942    1.4348 H   0  0  0  0  0  0  0  0  0  0  0  0
   -0.1948   -1.5681    0.9800 H   0  0  0  0  0  0  0  0  0  0  0  0
   -1.2564   -2.3201   -0.2239 H   0  0  0  0  0  0  0  0  0  0  0  0
   -0.3142   -0.4135   -1.8638 H   0  0  0  0  0  0  0  0  0  0  0  0
    0.5456   -1.9267   -1.5207 H   0  0  0  0  0  0  0  0  0  0  0  0
  1  2  2  0
  2  3  1  0
  3  4  1  0
  4  5  1  0
  5  6  1  0
  6  7  1  0
  7  8  1  0
  8  9  1  0
  9  3  1  0
  2 10  1  0
  3 11  1  0
  4 12  1  0
  4 13  1  0
  5 14  1  0
  5 15  1  0
  6 16  1  0
  6 17  1  0
  7 18  1  0
  7 19  1  0
  8 20  1  0
  8 21  1  0
  9 22  1  0
  9 23  1  0
M  END
