
     RDKit          3D

 17 17  0  0  0  0  0  0  0  0999 V2000
   -1.6166    2.6721    0.2272 O   0  0  0  0  0  0  0  0  0  0  0  0
   -0.7166    1.9647   -0.2612 C   0  0  0  0  0  0  0  0  0  0  0  0
   -0.6682    0.5288   -0.1366 C   0  0  0  0  0  0  0  0  0  0  0  0
   -1.5895   -0.1663    0.5166 C   0  0  0  0  0  0  0  0  0  0  0  0
   -1.2380   -1.5944    0.4502 C   0  0  0  0  0  0  0  0  0  0  0  0
   -0.1195   -1.6845   -0.3318 O   0  0  0  0  0  0  0  0  0  0  0  0
    0.3201   -0.4371   -0.6525 C   0  0  0  0  0  0  0  0  0  0  0  0
    1.6926   -0.2300   -0.0715 C   0  0  0  0  0  0  0  0  0  0  0  0
    2.2259    1.0049   -0.3414 O   0  0  0  0  0  0  0  0  0  0  0  0
    0.0669    2.5094   -0.8117 H   0  0  0  0  0  0  0  0  0  0  0  0
   -2.4662    0.2119    1.0260 H   0  0  0  0  0  0  0  0  0  0  0  0
   -1.1494   -2.0667    1.4466 H   0  0  0  0  0  0  0  0  0  0  0  0
   -2.0698   -2.1371   -0.0780 H   0  0  0  0  0  0  0  0  0  0  0  0
    0.3135   -0.3414   -1.7645 H   0  0  0  0  0  0  0  0  0  0  0  0
    2.3763   -1.0080   -0.4659 H   0  0  0  0  0  0  0  0  0  0  0  0
    1.6050   -0.3417    1.0264 H   0  0  0  0  0  0  0  0  0  0  0  0
    3.0338    1.1154    0.2221 H   0  0  0  0  0  0  0  0  0  0  0  0
  1  2  2  0
  2  3  1  0
  3  4  2  0
  4  5  1  0
  5  6  1  0
  6  7  1  0
  7  8  1  0
  8  9  1  0
  7  3  1  0
  2 10  1  0
  4 11  1  0
  5 12  1  0
  5 13  1  0
  7 14  1  0
  8 15  1  0
  8 16  1  0
  9 17  1  0
M  END
