
     RDKit          3D

 19 20  0  0  0  0  0  0  0  0999 V2000
    3.8229   -0.3698   -1.1694 O   0  0  0  0  0  0  0  0  0  0  0  0
    2.8988    0.1738   -0.6195 C   0  0  0  0  0  0  0  0  0  0  0  0
    1.9195   -0.6562    0.1030 C   0  0  0  0  0  0  0  0  0  0  0  0
    0.8214    0.2058    0.7350 C   0  0  0  0  0  0  0  0  0  0  0  0
   -0.1543   -0.5129    1.4439 O   0  0  0  0  0  0  0  0  0  0  0  0
   -0.4130    0.2539    0.1951 C   0  0  0  0  0  0  0  0  0  0  0  0
   -1.1506   -0.5829   -0.7699 C   0  0  0  0  0  0  0  0  0  0  0  0
   -2.4328   -0.1062   -0.0686 C   0  0  0  0  0  0  0  0  0  0  0  0
   -1.6013    1.1105    0.3596 C   0  0  0  0  0  0  0  0  0  0  0  0
    2.7512    1.2427   -0.6293 H   0  0  0  0  0  0  0  0  0  0  0  0
    2.3868   -1.3165    0.8648 H   0  0  0  0  0  0  0  0  0  0  0  0
    1.4281   -1.3284   -0.6278 H   0  0  0  0  0  0  0  0  0  0  0  0
    1.2571    1.0340    1.3303 H   0  0  0  0  0  0  0  0  0  0  0  0
   -0.9827   -1.6644   -0.7068 H   0  0  0  0  0  0  0  0  0  0  0  0
   -1.1211   -0.1792   -1.8037 H   0  0  0  0  0  0  0  0  0  0  0  0
   -2.6981   -0.7722    0.7781 H   0  0  0  0  0  0  0  0  0  0  0  0
   -3.2196    0.1073   -0.7924 H   0  0  0  0  0  0  0  0  0  0  0  0
   -1.6684    1.8650   -0.4671 H   0  0  0  0  0  0  0  0  0  0  0  0
   -1.8440    1.4959    1.3526 H   0  0  0  0  0  0  0  0  0  0  0  0
  1  2  2  0
  2  3  1  0
  3  4  1  0
  4  5  1  0
  5  6  1  0
  6  7  1  0
  7  8  1  0
  8  9  1  0
  6  4  1  0
  9  6  1  0
  2 10  1  0
  3 11  1  0
  3 12  1  0
  4 13  1  0
  7 14  1  0
  7 15  1  0
  8 16  1  0
  8 17  1  0
  9 18  1  0
  9 19  1  0
M  END
