
     RDKit          3D

 15 15  0  0  0  0  0  0  0  0999 V2000
    3.2281    0.6231   -0.4846 O   0  0  0  0  0  0  0  0  0  0  0  0
    2.4626   -0.2858   -0.1389 C   0  0  0  0  0  0  0  0  0  0  0  0
    1.0213    0.0162   -0.0257 C   0  0  0  0  0  0  0  0  0  0  0  0
    0.1624   -0.9169    0.3391 C   0  0  0  0  0  0  0  0  0  0  0  0
   -1.2948   -0.7193    0.4827 C   0  0  0  0  0  0  0  0  0  0  0  0
   -1.7876    0.5040   -0.2124 C   0  0  0  0  0  0  0  0  0  0  0  0
   -0.8471    1.5665   -0.1973 O   0  0  0  0  0  0  0  0  0  0  0  0
    0.5114    1.3402   -0.3151 C   0  0  0  0  0  0  0  0  0  0  0  0
    1.2700    2.2571   -0.6618 O   0  0  0  0  0  0  0  0  0  0  0  0
    2.7918   -1.2908    0.0853 H   0  0  0  0  0  0  0  0  0  0  0  0
    0.5633   -1.9195    0.5525 H   0  0  0  0  0  0  0  0  0  0  0  0
   -1.5906   -0.6358    1.5523 H   0  0  0  0  0  0  0  0  0  0  0  0
   -1.7867   -1.6149    0.0171 H   0  0  0  0  0  0  0  0  0  0  0  0
   -1.9873    0.2268   -1.2775 H   0  0  0  0  0  0  0  0  0  0  0  0
   -2.7168    0.8492    0.2843 H   0  0  0  0  0  0  0  0  0  0  0  0
  1  2  2  0
  2  3  1  0
  3  4  2  0
  4  5  1  0
  5  6  1  0
  6  7  1  0
  7  8  1  0
  8  9  2  0
  8  3  1  0
  2 10  1  0
  4 11  1  0
  5 12  1  0
  5 13  1  0
  6 14  1  0
  6 15  1  0
M  END
