
     RDKit          3D

 15 15  0  0  0  0  0  0  0  0999 V2000
    3.1203    1.4825    0.4221 O   0  0  0  0  0  0  0  0  0  0  0  0
    3.0275    0.2997   -0.0009 C   0  0  0  0  0  0  0  0  0  0  0  0
    1.7719   -0.3393   -0.3002 C   0  0  0  0  0  0  0  0  0  0  0  0
    1.7732   -1.5231   -0.7180 O   0  0  0  0  0  0  0  0  0  0  0  0
    0.5364    0.2692   -0.1581 O   0  0  0  0  0  0  0  0  0  0  0  0
   -0.6927   -0.3205   -0.4385 C   0  0  0  0  0  0  0  0  0  0  0  0
   -1.6486   -0.1558    0.7130 C   0  0  0  0  0  0  0  0  0  0  0  0
   -2.2709    0.9336    0.1232 O   0  0  0  0  0  0  0  0  0  0  0  0
   -1.7207    0.5650   -1.1025 C   0  0  0  0  0  0  0  0  0  0  0  0
    3.9562   -0.2359   -0.1353 H   0  0  0  0  0  0  0  0  0  0  0  0
   -0.6817   -1.3621   -0.8055 H   0  0  0  0  0  0  0  0  0  0  0  0
   -1.1754    0.0399    1.7020 H   0  0  0  0  0  0  0  0  0  0  0  0
   -2.3815   -0.9915    0.8449 H   0  0  0  0  0  0  0  0  0  0  0  0
   -2.4109   -0.0424   -1.7471 H   0  0  0  0  0  0  0  0  0  0  0  0
   -1.2032    1.3807   -1.6533 H   0  0  0  0  0  0  0  0  0  0  0  0
  1  2  2  0
  2  3  1  0
  3  4  2  0
  3  5  1  0
  5  6  1  0
  6  7  1  0
  7  8  1  0
  8  9  1  0
  9  6  1  0
  2 10  1  0
  6 11  1  0
  7 12  1  0
  7 13  1  0
  9 14  1  0
  9 15  1  0
M  END
