
     RDKit          3D

 17 17  0  0  0  0  0  0  0  0999 V2000
   -1.3766    2.0507    0.6724 O   0  0  0  0  0  0  0  0  0  0  0  0
   -1.9691    1.0761    0.2820 C   0  0  0  0  0  0  0  0  0  0  0  0
   -1.2922    0.1282   -0.6630 C   0  0  0  0  0  0  0  0  0  0  0  0
   -1.2074   -1.1704    0.0282 C   0  0  0  0  0  0  0  0  0  0  0  0
    0.0604   -1.4972    0.1638 C   0  0  0  0  0  0  0  0  0  0  0  0
    0.8594   -0.4071   -0.4431 C   0  0  0  0  0  0  0  0  0  0  0  0
    1.6730    0.3085    0.6126 C   0  0  0  0  0  0  0  0  0  0  0  0
    2.3633    1.3667    0.0325 O   0  0  0  0  0  0  0  0  0  0  0  0
   -0.0234    0.5099   -0.9759 O   0  0  0  0  0  0  0  0  0  0  0  0
   -2.9783    0.9093    0.6246 H   0  0  0  0  0  0  0  0  0  0  0  0
   -1.9056    0.0817   -1.5925 H   0  0  0  0  0  0  0  0  0  0  0  0
   -2.0293   -1.7716    0.3746 H   0  0  0  0  0  0  0  0  0  0  0  0
    0.4593   -2.4211    0.6448 H   0  0  0  0  0  0  0  0  0  0  0  0
    1.4875   -0.7786   -1.2756 H   0  0  0  0  0  0  0  0  0  0  0  0
    0.9489    0.7430    1.3313 H   0  0  0  0  0  0  0  0  0  0  0  0
    2.3974   -0.3646    1.1114 H   0  0  0  0  0  0  0  0  0  0  0  0
    2.5327    1.2365   -0.9283 H   0  0  0  0  0  0  0  0  0  0  0  0
  1  2  2  0
  2  3  1  0
  3  4  1  0
  4  5  2  0
  5  6  1  0
  6  7  1  0
  7  8  1  0
  6  9  1  0
  9  3  1  0
  2 10  1  0
  3 11  1  0
  4 12  1  0
  5 13  1  0
  6 14  1  0
  7 15  1  0
  7 16  1  0
  8 17  1  0
M  END
