
     RDKit          3D

 19 19  0  0  0  0  0  0  0  0999 V2000
    2.9923    1.1107    0.8383 O   0  0  0  0  0  0  0  0  0  0  0  0
    2.5223    0.2192    0.1641 C   0  0  0  0  0  0  0  0  0  0  0  0
    1.1042    0.1601   -0.2531 C   0  0  0  0  0  0  0  0  0  0  0  0
    0.4575   -1.1437    0.1986 C   0  0  0  0  0  0  0  0  0  0  0  0
   -0.9267   -1.1957   -0.3919 C   0  0  0  0  0  0  0  0  0  0  0  0
   -1.7880   -0.0841    0.0981 C   0  0  0  0  0  0  0  0  0  0  0  0
   -1.1514    1.2678   -0.0861 C   0  0  0  0  0  0  0  0  0  0  0  0
    0.2902    1.2439    0.3746 C   0  0  0  0  0  0  0  0  0  0  0  0
    0.7205    2.0303    1.1705 O   0  0  0  0  0  0  0  0  0  0  0  0
    3.1719   -0.5737   -0.1487 H   0  0  0  0  0  0  0  0  0  0  0  0
    1.0046    0.2291   -1.3673 H   0  0  0  0  0  0  0  0  0  0  0  0
    1.0763   -1.9747   -0.1204 H   0  0  0  0  0  0  0  0  0  0  0  0
    0.3613   -1.0471    1.3114 H   0  0  0  0  0  0  0  0  0  0  0  0
   -0.8351   -1.2038   -1.4926 H   0  0  0  0  0  0  0  0  0  0  0  0
   -1.4016   -2.1579   -0.0879 H   0  0  0  0  0  0  0  0  0  0  0  0
   -2.7170   -0.0792   -0.5423 H   0  0  0  0  0  0  0  0  0  0  0  0
   -2.0874   -0.2880    1.1318 H   0  0  0  0  0  0  0  0  0  0  0  0
   -1.7257    2.0538    0.4025 H   0  0  0  0  0  0  0  0  0  0  0  0
   -1.0682    1.4330   -1.1997 H   0  0  0  0  0  0  0  0  0  0  0  0
  1  2  2  0
  2  3  1  0
  3  4  1  0
  4  5  1  0
  5  6  1  0
  6  7  1  0
  7  8  1  0
  8  9  2  0
  8  3  1  0
  2 10  1  0
  3 11  1  0
  4 12  1  0
  4 13  1  0
  5 14  1  0
  5 15  1  0
  6 16  1  0
  6 17  1  0
  7 18  1  0
  7 19  1  0
M  END
