
     RDKit          3D

 17 18  0  0  0  0  0  0  0  0999 V2000
   -3.2892    0.9941    0.2739 O   0  0  0  0  0  0  0  0  0  0  0  0
   -2.5514    0.3172   -0.4214 C   0  0  0  0  0  0  0  0  0  0  0  0
   -1.0868    0.4373   -0.4744 C   0  0  0  0  0  0  0  0  0  0  0  0
   -0.4302   -0.7987    0.1570 C   0  0  0  0  0  0  0  0  0  0  0  0
    0.9260   -0.2954    0.4790 C   0  0  0  0  0  0  0  0  0  0  0  0
    0.7932    1.2024    0.2025 C   0  0  0  0  0  0  0  0  0  0  0  0
   -0.5934    1.4308    0.3721 O   0  0  0  0  0  0  0  0  0  0  0  0
    2.1416   -0.9407    0.3319 C   0  0  0  0  0  0  0  0  0  0  0  0
    1.5045   -0.7136    1.6539 O   0  0  0  0  0  0  0  0  0  0  0  0
   -3.0175   -0.4325   -1.0497 H   0  0  0  0  0  0  0  0  0  0  0  0
   -0.6823    0.6075   -1.4774 H   0  0  0  0  0  0  0  0  0  0  0  0
   -0.9901   -0.9314    1.1269 H   0  0  0  0  0  0  0  0  0  0  0  0
   -0.4802   -1.6680   -0.4906 H   0  0  0  0  0  0  0  0  0  0  0  0
    0.9825    1.3966   -0.8782 H   0  0  0  0  0  0  0  0  0  0  0  0
    1.3963    1.8106    0.8782 H   0  0  0  0  0  0  0  0  0  0  0  0
    3.1022   -0.3871    0.2505 H   0  0  0  0  0  0  0  0  0  0  0  0
    2.2746   -2.0290    0.1476 H   0  0  0  0  0  0  0  0  0  0  0  0
  1  2  2  0
  2  3  1  0
  3  4  1  0
  4  5  1  0
  5  6  1  0
  6  7  1  0
  5  8  1  0
  8  9  1  0
  7  3  1  0
  9  5  1  0
  2 10  1  0
  3 11  1  0
  4 12  1  0
  4 13  1  0
  6 14  1  0
  6 15  1  0
  8 16  1  0
  8 17  1  0
M  END
