
     RDKit          3D

 15 16  0  0  0  0  0  0  0  0999 V2000
    2.3938   -1.2157   -1.0020 O   0  0  0  0  0  0  0  0  0  0  0  0
    1.8547   -0.5923   -0.0956 C   0  0  0  0  0  0  0  0  0  0  0  0
    0.4434   -0.7059    0.2737 C   0  0  0  0  0  0  0  0  0  0  0  0
   -0.2017    0.5335    0.8304 C   0  0  0  0  0  0  0  0  0  0  0  0
   -1.4982   -0.1038    0.4224 C   0  0  0  0  0  0  0  0  0  0  0  0
   -0.5783   -0.3507   -0.7535 C   0  0  0  0  0  0  0  0  0  0  0  0
   -0.1458    1.0764   -0.5719 C   0  0  0  0  0  0  0  0  0  0  0  0
    2.4736    0.1076    0.4888 H   0  0  0  0  0  0  0  0  0  0  0  0
    0.1338   -1.5953    0.8492 H   0  0  0  0  0  0  0  0  0  0  0  0
    0.0129    1.0078    1.6798 H   0  0  0  0  0  0  0  0  0  0  0  0
   -2.3483    0.5550    0.2471 H   0  0  0  0  0  0  0  0  0  0  0  0
   -1.6716   -1.0217    1.0083 H   0  0  0  0  0  0  0  0  0  0  0  0
   -0.8098   -0.8201   -1.6032 H   0  0  0  0  0  0  0  0  0  0  0  0
    0.8573    1.2812   -0.9793 H   0  0  0  0  0  0  0  0  0  0  0  0
   -0.9159    1.8441   -0.7941 H   0  0  0  0  0  0  0  0  0  0  0  0
  1  2  2  0
  2  3  1  0
  3  4  1  0
  4  5  1  0
  5  6  1  0
  6  7  1  0
  6  3  1  0
  7  4  1  0
  2  8  1  0
  3  9  1  0
  4 10  1  0
  5 11  1  0
  5 12  1  0
  6 13  1  0
  7 14  1  0
  7 15  1  0
M  END
