
     RDKit          3D

 17 18  0  0  0  0  0  0  0  0999 V2000
    1.7157    1.3146   -1.3144 O   0  0  0  0  0  0  0  0  0  0  0  0
    2.0631    0.4647   -0.5092 C   0  0  0  0  0  0  0  0  0  0  0  0
    1.1053   -0.1694    0.4311 C   0  0  0  0  0  0  0  0  0  0  0  0
    0.0348    0.7435    1.0726 C   0  0  0  0  0  0  0  0  0  0  0  0
    0.0351    2.0859    0.6642 O   0  0  0  0  0  0  0  0  0  0  0  0
   -0.3070   -0.2817    0.1417 C   0  0  0  0  0  0  0  0  0  0  0  0
   -0.9563   -0.1673   -1.1662 C   0  0  0  0  0  0  0  0  0  0  0  0
   -2.0481   -0.9003   -0.6411 O   0  0  0  0  0  0  0  0  0  0  0  0
   -1.1688   -1.4479    0.3223 C   0  0  0  0  0  0  0  0  0  0  0  0
    3.1208    0.2017   -0.5250 H   0  0  0  0  0  0  0  0  0  0  0  0
    1.5590   -0.9248    1.1063 H   0  0  0  0  0  0  0  0  0  0  0  0
   -0.1627    0.6012    2.1494 H   0  0  0  0  0  0  0  0  0  0  0  0
   -0.8784    2.4277    0.5394 H   0  0  0  0  0  0  0  0  0  0  0  0
   -1.3100    0.8201   -1.4913 H   0  0  0  0  0  0  0  0  0  0  0  0
   -0.4263   -0.7248   -1.9684 H   0  0  0  0  0  0  0  0  0  0  0  0
   -0.7514   -2.3947   -0.1059 H   0  0  0  0  0  0  0  0  0  0  0  0
   -1.6249   -1.6486    1.2945 H   0  0  0  0  0  0  0  0  0  0  0  0
  1  2  2  0
  2  3  1  0
  3  4  1  0
  4  5  1  0
  4  6  1  0
  6  7  1  0
  7  8  1  0
  8  9  1  0
  6  3  1  0
  9  6  1  0
  2 10  1  0
  3 11  1  0
  4 12  1  0
  5 13  1  0
  7 14  1  0
  7 15  1  0
  9 16  1  0
  9 17  1  0
M  END
