
     RDKit          3D

 15 15  0  0  0  0  0  0  0  0999 V2000
    3.0189    0.8661   -0.0142 O   0  0  0  0  0  0  0  0  0  0  0  0
    2.3206   -0.1553    0.1857 C   0  0  0  0  0  0  0  0  0  0  0  0
    0.8856   -0.1388    0.0075 C   0  0  0  0  0  0  0  0  0  0  0  0
    0.1456   -1.2198    0.2190 C   0  0  0  0  0  0  0  0  0  0  0  0
   -1.3040   -1.0614   -0.0008 C   0  0  0  0  0  0  0  0  0  0  0  0
   -1.8360    0.1074    0.4928 O   0  0  0  0  0  0  0  0  0  0  0  0
   -1.2338    1.2538    0.0533 C   0  0  0  0  0  0  0  0  0  0  0  0
    0.1592    1.0532   -0.4100 C   0  0  0  0  0  0  0  0  0  0  0  0
    0.7632    1.8651   -1.1557 O   0  0  0  0  0  0  0  0  0  0  0  0
    2.7938   -1.0734    0.4986 H   0  0  0  0  0  0  0  0  0  0  0  0
    0.6117   -2.1467    0.5336 H   0  0  0  0  0  0  0  0  0  0  0  0
   -1.8044   -1.9172    0.4984 H   0  0  0  0  0  0  0  0  0  0  0  0
   -1.5791   -1.1542   -1.0843 H   0  0  0  0  0  0  0  0  0  0  0  0
   -1.7699    1.7739   -0.7678 H   0  0  0  0  0  0  0  0  0  0  0  0
   -1.1713    1.9475    0.9438 H   0  0  0  0  0  0  0  0  0  0  0  0
  1  2  2  0
  2  3  1  0
  3  4  2  0
  4  5  1  0
  5  6  1  0
  6  7  1  0
  7  8  1  0
  8  9  2  0
  8  3  1  0
  2 10  1  0
  4 11  1  0
  5 12  1  0
  5 13  1  0
  7 14  1  0
  7 15  1  0
M  END
