
     RDKit          3D

 19 20  0  0  0  0  0  0  0  0999 V2000
   -3.0767   -0.2319    0.6990 O   0  0  0  0  0  0  0  0  0  0  0  0
   -2.4516   -0.1743   -0.3434 C   0  0  0  0  0  0  0  0  0  0  0  0
   -1.0253    0.2403   -0.4444 C   0  0  0  0  0  0  0  0  0  0  0  0
   -0.1180   -0.9424   -0.6586 C   0  0  0  0  0  0  0  0  0  0  0  0
    1.1676   -0.6780    0.0333 C   0  0  0  0  0  0  0  0  0  0  0  0
    2.0593    0.3659   -0.5270 C   0  0  0  0  0  0  0  0  0  0  0  0
    1.6996    1.2868    0.4591 O   0  0  0  0  0  0  0  0  0  0  0  0
    0.8564    0.3522    1.0763 C   0  0  0  0  0  0  0  0  0  0  0  0
   -0.5770    0.7491    0.9085 C   0  0  0  0  0  0  0  0  0  0  0  0
   -2.9759   -0.4444   -1.2527 H   0  0  0  0  0  0  0  0  0  0  0  0
   -0.8745    1.0277   -1.2269 H   0  0  0  0  0  0  0  0  0  0  0  0
   -0.6130   -1.8061   -0.1353 H   0  0  0  0  0  0  0  0  0  0  0  0
   -0.0406   -1.2126   -1.7164 H   0  0  0  0  0  0  0  0  0  0  0  0
    1.6568   -1.6019    0.3862 H   0  0  0  0  0  0  0  0  0  0  0  0
    1.8822    0.6975   -1.5646 H   0  0  0  0  0  0  0  0  0  0  0  0
    3.1397    0.0870   -0.3593 H   0  0  0  0  0  0  0  0  0  0  0  0
    1.1462    0.0389    2.0829 H   0  0  0  0  0  0  0  0  0  0  0  0
   -1.2176    0.3776    1.7317 H   0  0  0  0  0  0  0  0  0  0  0  0
   -0.6376    1.8685    0.8516 H   0  0  0  0  0  0  0  0  0  0  0  0
  1  2  2  0
  2  3  1  0
  3  4  1  0
  4  5  1  0
  5  6  1  0
  6  7  1  0
  7  8  1  0
  8  9  1  0
  9  3  1  0
  8  5  1  0
  2 10  1  0
  3 11  1  0
  4 12  1  0
  4 13  1  0
  5 14  1  0
  6 15  1  0
  6 16  1  0
  8 17  1  0
  9 18  1  0
  9 19  1  0
M  END
