
     RDKit          3D

 16 17  0  0  0  0  0  0  0  0999 V2000
    2.8734   -0.5403    1.3737 O   0  0  0  0  0  0  0  0  0  0  0  0
    2.0326    0.0512    0.7552 C   0  0  0  0  0  0  0  0  0  0  0  0
    0.9186   -0.6742    0.0829 C   0  0  0  0  0  0  0  0  0  0  0  0
    0.5020   -0.1343   -1.3087 C   0  0  0  0  0  0  0  0  0  0  0  0
   -0.3677   -0.0487   -0.1742 C   0  0  0  0  0  0  0  0  0  0  0  0
   -0.9160    1.1380    0.4801 C   0  0  0  0  0  0  0  0  0  0  0  0
   -1.9761    0.3386    0.9651 O   0  0  0  0  0  0  0  0  0  0  0  0
   -1.6904   -0.6581    0.0029 C   0  0  0  0  0  0  0  0  0  0  0  0
    2.1235    1.1395    0.7097 H   0  0  0  0  0  0  0  0  0  0  0  0
    0.9351   -1.7745    0.2011 H   0  0  0  0  0  0  0  0  0  0  0  0
    0.3074   -0.9189   -2.0842 H   0  0  0  0  0  0  0  0  0  0  0  0
    1.0383    0.7585   -1.6720 H   0  0  0  0  0  0  0  0  0  0  0  0
   -0.3234    1.5709    1.3069 H   0  0  0  0  0  0  0  0  0  0  0  0
   -1.3733    1.9365   -0.1561 H   0  0  0  0  0  0  0  0  0  0  0  0
   -1.7518   -1.6742    0.4235 H   0  0  0  0  0  0  0  0  0  0  0  0
   -2.3323   -0.5099   -0.9057 H   0  0  0  0  0  0  0  0  0  0  0  0
  1  2  2  0
  2  3  1  0
  3  4  1  0
  4  5  1  0
  5  6  1  0
  6  7  1  0
  7  8  1  0
  5  3  1  0
  8  5  1  0
  2  9  1  0
  3 10  1  0
  4 11  1  0
  4 12  1  0
  6 13  1  0
  6 14  1  0
  8 15  1  0
  8 16  1  0
M  END
