
     RDKit          3D

 17 18  0  0  0  0  0  0  0  0999 V2000
    2.9732    0.1910    0.3427 O   0  0  0  0  0  0  0  0  0  0  0  0
    2.0494   -0.5078    0.6942 C   0  0  0  0  0  0  0  0  0  0  0  0
    0.8903   -0.6771   -0.1648 C   0  0  0  0  0  0  0  0  0  0  0  0
   -0.0905   -1.5269    0.4069 O   0  0  0  0  0  0  0  0  0  0  0  0
   -1.2427   -0.8279    0.2177 C   0  0  0  0  0  0  0  0  0  0  0  0
   -0.8733    0.5420    0.8147 C   0  0  0  0  0  0  0  0  0  0  0  0
    0.0693    0.5468   -0.3870 C   0  0  0  0  0  0  0  0  0  0  0  0
    0.5686    1.6756   -0.8292 O   0  0  0  0  0  0  0  0  0  0  0  0
   -1.1164   -0.0941   -1.1248 C   0  0  0  0  0  0  0  0  0  0  0  0
    2.1081   -0.9958    1.6501 H   0  0  0  0  0  0  0  0  0  0  0  0
    1.1220   -1.1590   -1.1541 H   0  0  0  0  0  0  0  0  0  0  0  0
   -2.1945   -1.2212    0.4701 H   0  0  0  0  0  0  0  0  0  0  0  0
   -1.6591    1.2993    0.6521 H   0  0  0  0  0  0  0  0  0  0  0  0
   -0.3962    0.5019    1.7898 H   0  0  0  0  0  0  0  0  0  0  0  0
    0.5341    2.4020   -0.1568 H   0  0  0  0  0  0  0  0  0  0  0  0
   -1.9717    0.5608   -1.2674 H   0  0  0  0  0  0  0  0  0  0  0  0
   -0.7707   -0.7096   -1.9540 H   0  0  0  0  0  0  0  0  0  0  0  0
  1  2  2  0
  2  3  1  0
  3  4  1  0
  4  5  1  0
  5  6  1  0
  6  7  1  0
  7  8  1  0
  7  9  1  0
  7  3  1  0
  9  5  1  0
  2 10  1  0
  3 11  1  0
  5 12  1  0
  6 13  1  0
  6 14  1  0
  8 15  1  0
  9 16  1  0
  9 17  1  0
M  END
