
     RDKit          3D

 15 16  0  0  0  0  0  0  0  0999 V2000
   -1.5868   -1.7828   -0.0118 O   0  0  0  0  0  0  0  0  0  0  0  0
   -1.1157   -0.9050   -0.7202 C   0  0  0  0  0  0  0  0  0  0  0  0
   -0.4243    0.2392   -0.0971 C   0  0  0  0  0  0  0  0  0  0  0  0
   -1.2235    1.4790    0.0089 C   0  0  0  0  0  0  0  0  0  0  0  0
   -0.6874    2.5668    0.0777 O   0  0  0  0  0  0  0  0  0  0  0  0
    1.0089    0.4073   -0.4786 C   0  0  0  0  0  0  0  0  0  0  0  0
    1.2980   -0.8988    0.1865 C   0  0  0  0  0  0  0  0  0  0  0  0
    0.4092   -0.1152    1.0892 C   0  0  0  0  0  0  0  0  0  0  0  0
    1.1841    0.9946    0.7628 O   0  0  0  0  0  0  0  0  0  0  0  0
   -1.2154   -0.9841   -1.8021 H   0  0  0  0  0  0  0  0  0  0  0  0
   -2.3018    1.4217    0.0259 H   0  0  0  0  0  0  0  0  0  0  0  0
    1.3733    0.7375   -1.3608 H   0  0  0  0  0  0  0  0  0  0  0  0
    0.8847   -1.7711   -0.3195 H   0  0  0  0  0  0  0  0  0  0  0  0
    2.3076   -1.0242    0.6271 H   0  0  0  0  0  0  0  0  0  0  0  0
    0.0890   -0.3648    2.0118 H   0  0  0  0  0  0  0  0  0  0  0  0
  1  2  2  0
  2  3  1  0
  3  4  1  0
  4  5  2  0
  3  6  1  0
  6  7  1  0
  7  8  1  0
  8  9  1  0
  8  3  1  0
  9  6  1  0
  2 10  1  0
  4 11  1  0
  6 12  1  0
  7 13  1  0
  7 14  1  0
  8 15  1  0
M  END
