
     RDKit          3D

 17 16  0  0  0  0  0  0  0  0999 V2000
    3.3989    1.2259   -0.7616 O   0  0  0  0  0  0  0  0  0  0  0  0
    3.2476    0.0282   -0.6646 C   0  0  0  0  0  0  0  0  0  0  0  0
    2.1516   -0.4965    0.2105 C   0  0  0  0  0  0  0  0  0  0  0  0
    0.8609    0.0989   -0.3139 C   0  0  0  0  0  0  0  0  0  0  0  0
   -0.2558   -0.3397    0.4504 O   0  0  0  0  0  0  0  0  0  0  0  0
   -1.4957    0.1369    0.0085 C   0  0  0  0  0  0  0  0  0  0  0  0
   -1.5917    0.8915   -0.9899 O   0  0  0  0  0  0  0  0  0  0  0  0
   -2.7340   -0.2476    0.7216 C   0  0  0  0  0  0  0  0  0  0  0  0
   -3.8242    0.2853    0.0653 O   0  0  0  0  0  0  0  0  0  0  0  0
    3.8484   -0.7381   -1.1695 H   0  0  0  0  0  0  0  0  0  0  0  0
    2.2843   -0.1277    1.2544 H   0  0  0  0  0  0  0  0  0  0  0  0
    2.1205   -1.5880    0.2598 H   0  0  0  0  0  0  0  0  0  0  0  0
    0.8677    1.1965   -0.2707 H   0  0  0  0  0  0  0  0  0  0  0  0
    0.6567   -0.2116   -1.3745 H   0  0  0  0  0  0  0  0  0  0  0  0
   -2.6915    0.0841    1.7835 H   0  0  0  0  0  0  0  0  0  0  0  0
   -2.7398   -1.3606    0.7605 H   0  0  0  0  0  0  0  0  0  0  0  0
   -4.1038    1.1624    0.4625 H   0  0  0  0  0  0  0  0  0  0  0  0
  1  2  2  0
  2  3  1  0
  3  4  1  0
  4  5  1  0
  5  6  1  0
  6  7  2  0
  6  8  1  0
  8  9  1  0
  2 10  1  0
  3 11  1  0
  3 12  1  0
  4 13  1  0
  4 14  1  0
  8 15  1  0
  8 16  1  0
  9 17  1  0
M  END
