
     RDKit          3D

 19 20  0  0  0  0  0  0  0  0999 V2000
    3.0105   -0.0071    1.3091 O   0  0  0  0  0  0  0  0  0  0  0  0
    2.2375   -0.0269    0.3704 C   0  0  0  0  0  0  0  0  0  0  0  0
    0.8275   -0.3426    0.5677 C   0  0  0  0  0  0  0  0  0  0  0  0
    0.1544   -0.9168   -0.6864 C   0  0  0  0  0  0  0  0  0  0  0  0
   -1.2271   -1.2052   -0.2232 C   0  0  0  0  0  0  0  0  0  0  0  0
   -1.4796    0.0667    0.6125 C   0  0  0  0  0  0  0  0  0  0  0  0
   -0.1629    0.7650    0.3905 C   0  0  0  0  0  0  0  0  0  0  0  0
    0.0562    1.9727    0.8887 O   0  0  0  0  0  0  0  0  0  0  0  0
    0.0305    0.5497   -1.1182 C   0  0  0  0  0  0  0  0  0  0  0  0
    2.6474    0.1992   -0.6037 H   0  0  0  0  0  0  0  0  0  0  0  0
    0.5676   -0.9905    1.4204 H   0  0  0  0  0  0  0  0  0  0  0  0
    0.7052   -1.5751   -1.2947 H   0  0  0  0  0  0  0  0  0  0  0  0
   -1.9306   -1.2215   -1.0792 H   0  0  0  0  0  0  0  0  0  0  0  0
   -1.2748   -2.1065    0.4033 H   0  0  0  0  0  0  0  0  0  0  0  0
   -1.5371   -0.2160    1.6793 H   0  0  0  0  0  0  0  0  0  0  0  0
   -2.3484    0.6238    0.2418 H   0  0  0  0  0  0  0  0  0  0  0  0
   -0.3354    2.6761    0.2935 H   0  0  0  0  0  0  0  0  0  0  0  0
    0.9551    0.9608   -1.5238 H   0  0  0  0  0  0  0  0  0  0  0  0
   -0.8960    0.7942   -1.6480 H   0  0  0  0  0  0  0  0  0  0  0  0
  1  2  2  0
  2  3  1  0
  3  4  1  0
  4  5  1  0
  5  6  1  0
  6  7  1  0
  7  8  1  0
  7  9  1  0
  7  3  1  0
  9  4  1  0
  2 10  1  0
  3 11  1  0
  4 12  1  0
  5 13  1  0
  5 14  1  0
  6 15  1  0
  6 16  1  0
  8 17  1  0
  9 18  1  0
  9 19  1  0
M  END
