
     RDKit          3D

 13 13  0  0  0  0  0  0  0  0999 V2000
   -1.7344   -0.6544    1.3783 O   0  0  0  0  0  0  0  0  0  0  0  0
   -0.8604   -1.1668    0.7111 C   0  0  0  0  0  0  0  0  0  0  0  0
    0.0949   -0.4129   -0.0802 C   0  0  0  0  0  0  0  0  0  0  0  0
    1.0074   -1.1707   -0.7664 O   0  0  0  0  0  0  0  0  0  0  0  0
    0.6705    0.8382    0.5226 C   0  0  0  0  0  0  0  0  0  0  0  0
    0.7332    1.3481   -0.7959 O   0  0  0  0  0  0  0  0  0  0  0  0
   -0.4971    0.6741   -0.9783 C   0  0  0  0  0  0  0  0  0  0  0  0
   -0.8055   -2.2526    0.7188 H   0  0  0  0  0  0  0  0  0  0  0  0
    1.9005   -1.0656   -0.3273 H   0  0  0  0  0  0  0  0  0  0  0  0
   -0.1264    1.4362    1.0536 H   0  0  0  0  0  0  0  0  0  0  0  0
    1.6228    0.7591    1.0377 H   0  0  0  0  0  0  0  0  0  0  0  0
   -0.7228    0.3770   -1.9947 H   0  0  0  0  0  0  0  0  0  0  0  0
   -1.2828    1.2901   -0.4794 H   0  0  0  0  0  0  0  0  0  0  0  0
  1  2  2  0
  2  3  1  0
  3  4  1  0
  3  5  1  0
  5  6  1  0
  6  7  1  0
  7  3  1  0
  2  8  1  0
  4  9  1  0
  5 10  1  0
  5 11  1  0
  7 12  1  0
  7 13  1  0
M  END
