
     RDKit          3D

 17 17  0  0  0  0  0  0  0  0999 V2000
   -3.3442    1.6084    1.5283 O   0  0  0  0  0  0  0  0  0  0  0  0
   -3.0183    0.6839    0.8022 C   0  0  0  0  0  0  0  0  0  0  0  0
   -1.7074    0.0479    0.9689 C   0  0  0  0  0  0  0  0  0  0  0  0
   -1.4569   -1.3517    0.5466 C   0  0  0  0  0  0  0  0  0  0  0  0
   -1.0126   -0.2749   -0.3404 C   0  0  0  0  0  0  0  0  0  0  0  0
    0.4483   -0.0295   -0.3598 C   0  0  0  0  0  0  0  0  0  0  0  0
    1.6392    0.1686   -0.3584 C   0  0  0  0  0  0  0  0  0  0  0  0
    3.0834    0.4266   -0.3401 C   0  0  0  0  0  0  0  0  0  0  0  0
    3.7114   -0.1919    0.7400 O   0  0  0  0  0  0  0  0  0  0  0  0
   -3.7502    0.3758    0.0450 H   0  0  0  0  0  0  0  0  0  0  0  0
   -1.0802    0.4735    1.7797 H   0  0  0  0  0  0  0  0  0  0  0  0
   -2.3075   -1.9765    0.1729 H   0  0  0  0  0  0  0  0  0  0  0  0
   -0.7068   -1.9437    1.0851 H   0  0  0  0  0  0  0  0  0  0  0  0
   -1.5507   -0.1041   -1.2928 H   0  0  0  0  0  0  0  0  0  0  0  0
    3.5801    0.0323   -1.2677 H   0  0  0  0  0  0  0  0  0  0  0  0
    3.2674    1.5364   -0.3403 H   0  0  0  0  0  0  0  0  0  0  0  0
    4.2049    0.5189    1.2368 H   0  0  0  0  0  0  0  0  0  0  0  0
  1  2  2  0
  2  3  1  0
  3  4  1  0
  4  5  1  0
  5  6  1  0
  6  7  3  0
  7  8  1  0
  8  9  1  0
  5  3  1  0
  2 10  1  0
  3 11  1  0
  4 12  1  0
  4 13  1  0
  5 14  1  0
  8 15  1  0
  8 16  1  0
  9 17  1  0
M  END
