
     RDKit          3D

 19 19  0  0  0  0  0  0  0  0999 V2000
    2.2277   -2.3211   -0.4511 O   0  0  0  0  0  0  0  0  0  0  0  0
    1.8102   -1.4062    0.2657 C   0  0  0  0  0  0  0  0  0  0  0  0
    1.8811   -0.0319   -0.3452 C   0  0  0  0  0  0  0  0  0  0  0  0
    1.3327    0.9275    0.6751 C   0  0  0  0  0  0  0  0  0  0  0  0
    0.0454    0.5998    0.9732 O   0  0  0  0  0  0  0  0  0  0  0  0
   -0.8672    0.6363   -0.0423 C   0  0  0  0  0  0  0  0  0  0  0  0
   -2.3200    0.8066    0.2031 C   0  0  0  0  0  0  0  0  0  0  0  0
   -1.8425   -0.5760   -0.0179 C   0  0  0  0  0  0  0  0  0  0  0  0
   -1.9805   -1.2140   -1.2273 O   0  0  0  0  0  0  0  0  0  0  0  0
    1.4287   -1.5959    1.2484 H   0  0  0  0  0  0  0  0  0  0  0  0
    2.9403    0.2393   -0.5388 H   0  0  0  0  0  0  0  0  0  0  0  0
    1.2507   -0.0104   -1.2295 H   0  0  0  0  0  0  0  0  0  0  0  0
    1.9432    0.9344    1.6112 H   0  0  0  0  0  0  0  0  0  0  0  0
    1.3407    1.9783    0.2816 H   0  0  0  0  0  0  0  0  0  0  0  0
   -0.5038    0.9391   -1.0364 H   0  0  0  0  0  0  0  0  0  0  0  0
   -2.9332    1.2429   -0.6031 H   0  0  0  0  0  0  0  0  0  0  0  0
   -2.6825    1.0957    1.2247 H   0  0  0  0  0  0  0  0  0  0  0  0
   -1.8297   -1.2238    0.8677 H   0  0  0  0  0  0  0  0  0  0  0  0
   -1.2413   -1.0206   -1.8593 H   0  0  0  0  0  0  0  0  0  0  0  0
  1  2  2  0
  2  3  1  0
  3  4  1  0
  4  5  1  0
  5  6  1  0
  6  7  1  0
  7  8  1  0
  8  9  1  0
  8  6  1  0
  2 10  1  0
  3 11  1  0
  3 12  1  0
  4 13  1  0
  4 14  1  0
  6 15  1  0
  7 16  1  0
  7 17  1  0
  8 18  1  0
  9 19  1  0
M  END
