
     RDKit          3D

 13 13  0  0  0  0  0  0  0  0999 V2000
    1.0753   -1.5966    1.7481 O   0  0  0  0  0  0  0  0  0  0  0  0
    1.4591   -1.3837    0.6002 C   0  0  0  0  0  0  0  0  0  0  0  0
    0.8977   -0.5286   -0.4096 C   0  0  0  0  0  0  0  0  0  0  0  0
    1.4349   -0.4255   -1.5643 O   0  0  0  0  0  0  0  0  0  0  0  0
   -0.3218    0.2550   -0.1311 C   0  0  0  0  0  0  0  0  0  0  0  0
   -0.9885    0.1736    1.1678 C   0  0  0  0  0  0  0  0  0  0  0  0
   -2.0098    0.9040    1.2553 O   0  0  0  0  0  0  0  0  0  0  0  0
   -0.6250    1.2985   -1.0867 C   0  0  0  0  0  0  0  0  0  0  0  0
   -1.3520    0.0457   -1.2074 O   0  0  0  0  0  0  0  0  0  0  0  0
    2.3698   -1.9249    0.2884 H   0  0  0  0  0  0  0  0  0  0  0  0
   -0.7276   -0.4115    2.0320 H   0  0  0  0  0  0  0  0  0  0  0  0
   -1.2281    2.1587   -0.7392 H   0  0  0  0  0  0  0  0  0  0  0  0
    0.0159    1.4353   -1.9534 H   0  0  0  0  0  0  0  0  0  0  0  0
  1  2  2  0
  2  3  1  0
  3  4  2  0
  3  5  1  0
  5  6  1  0
  6  7  2  0
  5  8  1  0
  8  9  1  0
  9  5  1  0
  2 10  1  0
  6 11  1  0
  8 12  1  0
  8 13  1  0
M  END
