
     RDKit          3D

 15 14  0  0  0  0  0  0  0  0999 V2000
   -2.3645    1.7781    0.8118 O   0  0  0  0  0  0  0  0  0  0  0  0
   -2.8252    0.5483    1.0243 C   0  0  0  0  0  0  0  0  0  0  0  0
   -2.0642   -0.4024    0.2700 C   0  0  0  0  0  0  0  0  0  0  0  0
   -0.7877   -0.0463   -0.2086 C   0  0  0  0  0  0  0  0  0  0  0  0
    0.3942    0.2822   -0.6275 C   0  0  0  0  0  0  0  0  0  0  0  0
    1.6743    0.6567   -1.0659 C   0  0  0  0  0  0  0  0  0  0  0  0
    2.6688    0.4641   -0.1204 O   0  0  0  0  0  0  0  0  0  0  0  0
    2.7548   -0.8262    0.4389 C   0  0  0  0  0  0  0  0  0  0  0  0
    1.8849   -1.6757    0.0143 O   0  0  0  0  0  0  0  0  0  0  0  0
   -3.6214    0.4797    1.6782 H   0  0  0  0  0  0  0  0  0  0  0  0
   -2.1127   -1.4223    0.7478 H   0  0  0  0  0  0  0  0  0  0  0  0
   -2.6568   -0.6133   -0.7282 H   0  0  0  0  0  0  0  0  0  0  0  0
    1.9342    0.1822   -2.0459 H   0  0  0  0  0  0  0  0  0  0  0  0
    1.6668    1.8028   -1.3478 H   0  0  0  0  0  0  0  0  0  0  0  0
    3.4547   -1.1199    1.1590 H   0  0  0  0  0  0  0  0  0  0  0  0
  1  2  2  0
  2  3  1  0
  3  4  1  0
  4  5  3  0
  5  6  1  0
  6  7  1  0
  7  8  1  0
  8  9  2  0
  2 10  1  0
  3 11  1  0
  3 12  1  0
  6 13  1  0
  6 14  1  0
  8 15  1  0
M  END
