
     RDKit          3D

 15 15  0  0  0  0  0  0  0  0999 V2000
    2.5575   -1.0547    0.2471 O   0  0  0  0  0  0  0  0  0  0  0  0
    2.4715    0.1379   -0.1227 C   0  0  0  0  0  0  0  0  0  0  0  0
    1.1986    0.8318   -0.0699 C   0  0  0  0  0  0  0  0  0  0  0  0
    1.1174    2.0303   -0.4427 O   0  0  0  0  0  0  0  0  0  0  0  0
   -0.0208    0.1030    0.4347 C   0  0  0  0  0  0  0  0  0  0  0  0
   -0.4131   -0.9871   -0.5509 C   0  0  0  0  0  0  0  0  0  0  0  0
   -1.2527   -0.2365   -1.4087 O   0  0  0  0  0  0  0  0  0  0  0  0
   -2.0564    0.3758   -0.4442 C   0  0  0  0  0  0  0  0  0  0  0  0
   -1.1308    0.9392    0.4055 O   0  0  0  0  0  0  0  0  0  0  0  0
    3.3439    0.6340   -0.4755 H   0  0  0  0  0  0  0  0  0  0  0  0
    0.2054   -0.3050    1.4245 H   0  0  0  0  0  0  0  0  0  0  0  0
    0.4291   -1.4318   -1.0688 H   0  0  0  0  0  0  0  0  0  0  0  0
   -1.0783   -1.6921   -0.0388 H   0  0  0  0  0  0  0  0  0  0  0  0
   -2.6351   -0.4644    0.0390 H   0  0  0  0  0  0  0  0  0  0  0  0
   -2.7362    1.1197   -0.8928 H   0  0  0  0  0  0  0  0  0  0  0  0
  1  2  2  0
  2  3  1  0
  3  4  2  0
  3  5  1  0
  5  6  1  0
  6  7  1  0
  7  8  1  0
  8  9  1  0
  9  5  1  0
  2 10  1  0
  5 11  1  0
  6 12  1  0
  6 13  1  0
  8 14  1  0
  8 15  1  0
M  END
