
     RDKit          3D

 19 19  0  0  0  0  0  0  0  0999 V2000
    1.8577    1.2345    1.4927 O   0  0  0  0  0  0  0  0  0  0  0  0
    1.3251    1.3992    0.4006 C   0  0  0  0  0  0  0  0  0  0  0  0
    1.3095    0.3602   -0.6241 C   0  0  0  0  0  0  0  0  0  0  0  0
    0.2181   -0.6706   -0.4750 C   0  0  0  0  0  0  0  0  0  0  0  0
    0.2832   -1.6284   -1.5000 O   0  0  0  0  0  0  0  0  0  0  0  0
   -0.0229   -1.2130    0.8952 C   0  0  0  0  0  0  0  0  0  0  0  0
   -1.1124   -0.1804    1.0717 C   0  0  0  0  0  0  0  0  0  0  0  0
   -1.1779   -0.0859   -0.4316 C   0  0  0  0  0  0  0  0  0  0  0  0
   -1.2209    1.2171   -0.9269 O   0  0  0  0  0  0  0  0  0  0  0  0
    0.8588    2.3618    0.2222 H   0  0  0  0  0  0  0  0  0  0  0  0
    2.2866   -0.1881   -0.5730 H   0  0  0  0  0  0  0  0  0  0  0  0
    1.2155    0.7877   -1.6513 H   0  0  0  0  0  0  0  0  0  0  0  0
    0.1751   -1.1680   -2.3634 H   0  0  0  0  0  0  0  0  0  0  0  0
   -0.4517   -2.2462    0.8170 H   0  0  0  0  0  0  0  0  0  0  0  0
    0.8283   -1.1284    1.6017 H   0  0  0  0  0  0  0  0  0  0  0  0
   -0.8369    0.7508    1.5895 H   0  0  0  0  0  0  0  0  0  0  0  0
   -1.9970   -0.6508    1.5528 H   0  0  0  0  0  0  0  0  0  0  0  0
   -1.9188   -0.7748   -0.8585 H   0  0  0  0  0  0  0  0  0  0  0  0
   -1.6194    1.8232   -0.2395 H   0  0  0  0  0  0  0  0  0  0  0  0
  1  2  2  0
  2  3  1  0
  3  4  1  0
  4  5  1  0
  4  6  1  0
  6  7  1  0
  7  8  1  0
  8  9  1  0
  8  4  1  0
  2 10  1  0
  3 11  1  0
  3 12  1  0
  5 13  1  0
  6 14  1  0
  6 15  1  0
  7 16  1  0
  7 17  1  0
  8 18  1  0
  9 19  1  0
M  END
