
     RDKit          3D

 15 15  0  0  0  0  0  0  0  0999 V2000
    3.0520   -0.5076   -0.1721 O   0  0  0  0  0  0  0  0  0  0  0  0
    2.2476    0.4026   -0.2601 C   0  0  0  0  0  0  0  0  0  0  0  0
    0.8248    0.0318   -0.4532 C   0  0  0  0  0  0  0  0  0  0  0  0
    0.2790   -0.7024    0.7776 C   0  0  0  0  0  0  0  0  0  0  0  0
   -0.9437   -1.2851    0.4362 O   0  0  0  0  0  0  0  0  0  0  0  0
   -1.7874   -0.3959   -0.1826 C   0  0  0  0  0  0  0  0  0  0  0  0
   -1.3096    1.0122   -0.1178 C   0  0  0  0  0  0  0  0  0  0  0  0
   -2.0420    1.9541    0.2860 O   0  0  0  0  0  0  0  0  0  0  0  0
    0.0081    1.2061   -0.5378 O   0  0  0  0  0  0  0  0  0  0  0  0
    2.5975    1.4353   -0.1949 H   0  0  0  0  0  0  0  0  0  0  0  0
    0.7261   -0.6129   -1.3295 H   0  0  0  0  0  0  0  0  0  0  0  0
    0.0110    0.0693    1.5597 H   0  0  0  0  0  0  0  0  0  0  0  0
    0.9759   -1.4310    1.1725 H   0  0  0  0  0  0  0  0  0  0  0  0
   -2.7922   -0.4545    0.2793 H   0  0  0  0  0  0  0  0  0  0  0  0
   -1.8470   -0.7218   -1.2632 H   0  0  0  0  0  0  0  0  0  0  0  0
  1  2  2  0
  2  3  1  0
  3  4  1  0
  4  5  1  0
  5  6  1  0
  6  7  1  0
  7  8  2  0
  7  9  1  0
  9  3  1  0
  2 10  1  0
  3 11  1  0
  4 12  1  0
  4 13  1  0
  6 14  1  0
  6 15  1  0
M  END
