
     RDKit          3D

 17 17  0  0  0  0  0  0  0  0999 V2000
    2.3665   -1.3710   -0.0276 O   0  0  0  0  0  0  0  0  0  0  0  0
    2.0935   -0.3112   -0.5276 C   0  0  0  0  0  0  0  0  0  0  0  0
    0.7217   -0.0669   -1.0061 C   0  0  0  0  0  0  0  0  0  0  0  0
   -0.1141    0.2907    0.2223 C   0  0  0  0  0  0  0  0  0  0  0  0
    0.4229    1.4925    0.8768 C   0  0  0  0  0  0  0  0  0  0  0  0
    0.7828    1.5120    2.0418 O   0  0  0  0  0  0  0  0  0  0  0  0
   -1.5938    0.2307    0.0367 C   0  0  0  0  0  0  0  0  0  0  0  0
   -1.3644   -1.2076    0.3899 C   0  0  0  0  0  0  0  0  0  0  0  0
   -0.1809   -0.8404    1.0458 O   0  0  0  0  0  0  0  0  0  0  0  0
    2.8393    0.4471   -0.6241 H   0  0  0  0  0  0  0  0  0  0  0  0
    0.3044   -0.9813   -1.5123 H   0  0  0  0  0  0  0  0  0  0  0  0
    0.6486    0.7518   -1.7519 H   0  0  0  0  0  0  0  0  0  0  0  0
    0.4986    2.3940    0.2941 H   0  0  0  0  0  0  0  0  0  0  0  0
   -1.9861    0.4406   -0.9717 H   0  0  0  0  0  0  0  0  0  0  0  0
   -2.1089    0.7651    0.8571 H   0  0  0  0  0  0  0  0  0  0  0  0
   -2.1012   -1.6367    1.1118 H   0  0  0  0  0  0  0  0  0  0  0  0
   -1.2288   -1.9093   -0.4551 H   0  0  0  0  0  0  0  0  0  0  0  0
  1  2  2  0
  2  3  1  0
  3  4  1  0
  4  5  1  0
  5  6  2  0
  4  7  1  0
  7  8  1  0
  8  9  1  0
  9  4  1  0
  2 10  1  0
  3 11  1  0
  3 12  1  0
  5 13  1  0
  7 14  1  0
  7 15  1  0
  8 16  1  0
  8 17  1  0
M  END
