
     RDKit          3D

 19 19  0  0  0  0  0  0  0  0999 V2000
   -3.4280   -1.3348   -0.3754 O   0  0  0  0  0  0  0  0  0  0  0  0
   -2.4481   -0.9329    0.2120 C   0  0  0  0  0  0  0  0  0  0  0  0
   -1.4833   -0.0771   -0.4971 C   0  0  0  0  0  0  0  0  0  0  0  0
   -0.1726   -0.7812   -0.5140 C   0  0  0  0  0  0  0  0  0  0  0  0
    0.8224   -0.0158   -0.1230 C   0  0  0  0  0  0  0  0  0  0  0  0
    2.2735   -0.2833    0.0175 C   0  0  0  0  0  0  0  0  0  0  0  0
    2.6262   -1.5765   -0.3297 O   0  0  0  0  0  0  0  0  0  0  0  0
    0.2422    1.3077    0.1961 C   0  0  0  0  0  0  0  0  0  0  0  0
   -1.2408    1.1773    0.3109 C   0  0  0  0  0  0  0  0  0  0  0  0
   -2.2745   -1.1877    1.2276 H   0  0  0  0  0  0  0  0  0  0  0  0
   -1.8350    0.1704   -1.5127 H   0  0  0  0  0  0  0  0  0  0  0  0
   -0.0635   -1.8206   -0.8200 H   0  0  0  0  0  0  0  0  0  0  0  0
    2.5667   -0.1278    1.0694 H   0  0  0  0  0  0  0  0  0  0  0  0
    2.8594    0.4523   -0.5801 H   0  0  0  0  0  0  0  0  0  0  0  0
    3.5498   -1.7159    0.0239 H   0  0  0  0  0  0  0  0  0  0  0  0
    0.7046    1.6488    1.1447 H   0  0  0  0  0  0  0  0  0  0  0  0
    0.5006    1.9739   -0.6609 H   0  0  0  0  0  0  0  0  0  0  0  0
   -1.6981    2.0610   -0.1682 H   0  0  0  0  0  0  0  0  0  0  0  0
   -1.5014    1.0623    1.3790 H   0  0  0  0  0  0  0  0  0  0  0  0
  1  2  2  0
  2  3  1  0
  3  4  1  0
  4  5  2  0
  5  6  1  0
  6  7  1  0
  5  8  1  0
  8  9  1  0
  9  3  1  0
  2 10  1  0
  3 11  1  0
  4 12  1  0
  6 13  1  0
  6 14  1  0
  7 15  1  0
  8 16  1  0
  8 17  1  0
  9 18  1  0
  9 19  1  0
M  END
