
     RDKit          3D

 19 20  0  0  0  0  0  0  0  0999 V2000
    3.1499    0.7488    1.0282 O   0  0  0  0  0  0  0  0  0  0  0  0
    2.6099    1.1267    0.0167 C   0  0  0  0  0  0  0  0  0  0  0  0
    1.4554    0.3960   -0.5401 C   0  0  0  0  0  0  0  0  0  0  0  0
    1.4895   -1.0837   -0.3367 C   0  0  0  0  0  0  0  0  0  0  0  0
    0.4709   -0.2708    0.3874 C   0  0  0  0  0  0  0  0  0  0  0  0
   -0.9676   -0.4156   -0.0899 C   0  0  0  0  0  0  0  0  0  0  0  0
   -1.9878   -1.0485    0.7431 C   0  0  0  0  0  0  0  0  0  0  0  0
   -1.9481    0.4239    0.7233 C   0  0  0  0  0  0  0  0  0  0  0  0
   -2.8172    1.1676   -0.0730 O   0  0  0  0  0  0  0  0  0  0  0  0
    2.9759    2.0031   -0.4796 H   0  0  0  0  0  0  0  0  0  0  0  0
    0.9924    0.7839   -1.4742 H   0  0  0  0  0  0  0  0  0  0  0  0
    2.2760   -1.5169    0.2994 H   0  0  0  0  0  0  0  0  0  0  0  0
    1.1579   -1.7175   -1.1664 H   0  0  0  0  0  0  0  0  0  0  0  0
    0.6037   -0.0016    1.4578 H   0  0  0  0  0  0  0  0  0  0  0  0
   -1.0906   -0.4811   -1.1782 H   0  0  0  0  0  0  0  0  0  0  0  0
   -1.6287   -1.5125    1.7059 H   0  0  0  0  0  0  0  0  0  0  0  0
   -2.8355   -1.5807    0.3081 H   0  0  0  0  0  0  0  0  0  0  0  0
   -1.5808    0.9836    1.5945 H   0  0  0  0  0  0  0  0  0  0  0  0
   -2.3252    1.9953   -0.3121 H   0  0  0  0  0  0  0  0  0  0  0  0
  1  2  2  0
  2  3  1  0
  3  4  1  0
  4  5  1  0
  5  6  1  0
  6  7  1  0
  7  8  1  0
  8  9  1  0
  5  3  1  0
  8  6  1  0
  2 10  1  0
  3 11  1  0
  4 12  1  0
  4 13  1  0
  5 14  1  0
  6 15  1  0
  7 16  1  0
  7 17  1  0
  8 18  1  0
  9 19  1  0
M  END
