
     RDKit          3D

 17 17  0  0  0  0  0  0  0  0999 V2000
    3.2333    0.9850    0.0982 O   0  0  0  0  0  0  0  0  0  0  0  0
    2.5580   -0.0694    0.0858 C   0  0  0  0  0  0  0  0  0  0  0  0
    1.1301   -0.0032   -0.1344 C   0  0  0  0  0  0  0  0  0  0  0  0
    0.5296    1.1625   -0.3231 C   0  0  0  0  0  0  0  0  0  0  0  0
   -0.9408    1.1127   -0.5400 C   0  0  0  0  0  0  0  0  0  0  0  0
   -1.5190    0.2297    0.5519 C   0  0  0  0  0  0  0  0  0  0  0  0
   -1.1369   -1.2047    0.2743 C   0  0  0  0  0  0  0  0  0  0  0  0
    0.2863   -1.2085   -0.1592 C   0  0  0  0  0  0  0  0  0  0  0  0
    0.8337   -2.2866   -0.5771 O   0  0  0  0  0  0  0  0  0  0  0  0
    3.0631   -0.9978    0.2401 H   0  0  0  0  0  0  0  0  0  0  0  0
    1.1005    2.0795   -0.3147 H   0  0  0  0  0  0  0  0  0  0  0  0
   -1.0867    0.5995   -1.5243 H   0  0  0  0  0  0  0  0  0  0  0  0
   -1.3854    2.1197   -0.5428 H   0  0  0  0  0  0  0  0  0  0  0  0
   -2.6171    0.3746    0.5802 H   0  0  0  0  0  0  0  0  0  0  0  0
   -1.0438    0.5430    1.5073 H   0  0  0  0  0  0  0  0  0  0  0  0
   -1.2054   -1.7571    1.2563 H   0  0  0  0  0  0  0  0  0  0  0  0
   -1.7994   -1.6790   -0.4786 H   0  0  0  0  0  0  0  0  0  0  0  0
  1  2  2  0
  2  3  1  0
  3  4  2  0
  4  5  1  0
  5  6  1  0
  6  7  1  0
  7  8  1  0
  8  9  2  0
  8  3  1  0
  2 10  1  0
  4 11  1  0
  5 12  1  0
  5 13  1  0
  6 14  1  0
  6 15  1  0
  7 16  1  0
  7 17  1  0
M  END
