
     RDKit          3D

 17 18  0  0  0  0  0  0  0  0999 V2000
    2.8028    0.9632    0.9557 O   0  0  0  0  0  0  0  0  0  0  0  0
    2.1947    0.3800    0.0743 C   0  0  0  0  0  0  0  0  0  0  0  0
    0.7485    0.0654    0.1536 C   0  0  0  0  0  0  0  0  0  0  0  0
    0.3607   -1.3504   -0.1335 C   0  0  0  0  0  0  0  0  0  0  0  0
   -0.9793   -1.4018   -0.5386 O   0  0  0  0  0  0  0  0  0  0  0  0
   -1.7735   -0.4982    0.1624 C   0  0  0  0  0  0  0  0  0  0  0  0
   -1.0116    0.7368    0.5397 C   0  0  0  0  0  0  0  0  0  0  0  0
   -0.0741    1.0602   -0.6310 C   0  0  0  0  0  0  0  0  0  0  0  0
    0.1083    0.4754    1.3030 O   0  0  0  0  0  0  0  0  0  0  0  0
    2.7148    0.0628   -0.8272 H   0  0  0  0  0  0  0  0  0  0  0  0
    0.4887   -1.9323    0.8193 H   0  0  0  0  0  0  0  0  0  0  0  0
    1.0133   -1.7819   -0.8889 H   0  0  0  0  0  0  0  0  0  0  0  0
   -2.5649   -0.1658   -0.5727 H   0  0  0  0  0  0  0  0  0  0  0  0
   -2.3199   -0.9571    0.9935 H   0  0  0  0  0  0  0  0  0  0  0  0
   -1.6185    1.6012    0.8012 H   0  0  0  0  0  0  0  0  0  0  0  0
    0.3564    2.0591   -0.6092 H   0  0  0  0  0  0  0  0  0  0  0  0
   -0.4465    0.6835   -1.6017 H   0  0  0  0  0  0  0  0  0  0  0  0
  1  2  2  0
  2  3  1  0
  3  4  1  0
  4  5  1  0
  5  6  1  0
  6  7  1  0
  7  8  1  0
  7  9  1  0
  8  3  1  0
  9  3  1  0
  2 10  1  0
  4 11  1  0
  4 12  1  0
  6 13  1  0
  6 14  1  0
  7 15  1  0
  8 16  1  0
  8 17  1  0
M  END
