
     RDKit          3D

 17 16  0  0  0  0  0  0  0  0999 V2000
    3.1725    0.6238   -0.6968 O   0  0  0  0  0  0  0  0  0  0  0  0
    2.8664    0.2197    0.3912 C   0  0  0  0  0  0  0  0  0  0  0  0
    1.6716   -0.6614    0.4970 C   0  0  0  0  0  0  0  0  0  0  0  0
    0.5203    0.0976   -0.1528 C   0  0  0  0  0  0  0  0  0  0  0  0
   -0.7562   -0.6409   -0.1109 C   0  0  0  0  0  0  0  0  0  0  0  0
   -0.8527   -1.7456   -0.5848 O   0  0  0  0  0  0  0  0  0  0  0  0
   -1.9299    0.0042    0.5321 C   0  0  0  0  0  0  0  0  0  0  0  0
   -2.6421    0.7685   -0.5184 C   0  0  0  0  0  0  0  0  0  0  0  0
   -3.3422    0.2104   -1.3233 O   0  0  0  0  0  0  0  0  0  0  0  0
    3.4010    0.4620    1.2778 H   0  0  0  0  0  0  0  0  0  0  0  0
    1.4444   -0.9793    1.5199 H   0  0  0  0  0  0  0  0  0  0  0  0
    1.9101   -1.5620   -0.1218 H   0  0  0  0  0  0  0  0  0  0  0  0
    0.8193    0.2722   -1.2303 H   0  0  0  0  0  0  0  0  0  0  0  0
    0.4490    1.1122    0.2804 H   0  0  0  0  0  0  0  0  0  0  0  0
   -2.6212   -0.7475    0.9760 H   0  0  0  0  0  0  0  0  0  0  0  0
   -1.5582    0.7145    1.3154 H   0  0  0  0  0  0  0  0  0  0  0  0
   -2.5519    1.8518   -0.5925 H   0  0  0  0  0  0  0  0  0  0  0  0
  1  2  2  0
  2  3  1  0
  3  4  1  0
  4  5  1  0
  5  6  2  0
  5  7  1  0
  7  8  1  0
  8  9  2  0
  2 10  1  0
  3 11  1  0
  3 12  1  0
  4 13  1  0
  4 14  1  0
  7 15  1  0
  7 16  1  0
  8 17  1  0
M  END
