
     RDKit          3D

 14 14  0  0  0  0  0  0  0  0999 V2000
   -1.7042   -1.1282    1.2219 O   0  0  0  0  0  0  0  0  0  0  0  0
   -1.9678   -0.5057    0.2112 C   0  0  0  0  0  0  0  0  0  0  0  0
   -1.4398    0.8630    0.0066 C   0  0  0  0  0  0  0  0  0  0  0  0
    0.0378    0.8013   -0.0615 C   0  0  0  0  0  0  0  0  0  0  0  0
    0.6795    1.8639   -0.1437 O   0  0  0  0  0  0  0  0  0  0  0  0
    0.8209   -0.4315   -0.0408 C   0  0  0  0  0  0  0  0  0  0  0  0
    2.2126   -0.4805   -0.3263 C   0  0  0  0  0  0  0  0  0  0  0  0
    1.7573   -0.3892    1.1069 O   0  0  0  0  0  0  0  0  0  0  0  0
   -2.6012   -0.9650   -0.5518 H   0  0  0  0  0  0  0  0  0  0  0  0
   -1.7877    1.2837   -0.9777 H   0  0  0  0  0  0  0  0  0  0  0  0
   -1.7886    1.5609    0.8147 H   0  0  0  0  0  0  0  0  0  0  0  0
    0.2431   -1.3673    0.0195 H   0  0  0  0  0  0  0  0  0  0  0  0
    2.7074   -1.4902   -0.3933 H   0  0  0  0  0  0  0  0  0  0  0  0
    2.8308    0.3848   -0.5697 H   0  0  0  0  0  0  0  0  0  0  0  0
  1  2  2  0
  2  3  1  0
  3  4  1  0
  4  5  2  0
  4  6  1  0
  6  7  1  0
  7  8  1  0
  8  6  1  0
  2  9  1  0
  3 10  1  0
  3 11  1  0
  6 12  1  0
  7 13  1  0
  7 14  1  0
M  END
