
     RDKit          3D

 14 14  0  0  0  0  0  0  0  0999 V2000
    2.0600    0.9336   -1.1443 O   0  0  0  0  0  0  0  0  0  0  0  0
    2.1247    0.4034   -0.0154 C   0  0  0  0  0  0  0  0  0  0  0  0
    0.9463    0.0698    0.7745 C   0  0  0  0  0  0  0  0  0  0  0  0
    1.1092   -0.4652    1.9075 O   0  0  0  0  0  0  0  0  0  0  0  0
   -0.3553    0.3840    0.1881 C   0  0  0  0  0  0  0  0  0  0  0  0
   -0.6457   -0.2996   -1.1232 C   0  0  0  0  0  0  0  0  0  0  0  0
   -1.7883   -0.8981   -0.6398 O   0  0  0  0  0  0  0  0  0  0  0  0
   -1.5482   -0.3667    0.6432 C   0  0  0  0  0  0  0  0  0  0  0  0
    3.1249    0.1974    0.3596 H   0  0  0  0  0  0  0  0  0  0  0  0
   -0.5055    1.5008    0.1730 H   0  0  0  0  0  0  0  0  0  0  0  0
   -0.8523    0.4587   -1.8996 H   0  0  0  0  0  0  0  0  0  0  0  0
    0.1075   -1.0078   -1.4840 H   0  0  0  0  0  0  0  0  0  0  0  0
   -2.3924    0.3086    0.9210 H   0  0  0  0  0  0  0  0  0  0  0  0
   -1.3851   -1.2188    1.3393 H   0  0  0  0  0  0  0  0  0  0  0  0
  1  2  2  0
  2  3  1  0
  3  4  2  0
  3  5  1  0
  5  6  1  0
  6  7  1  0
  7  8  1  0
  8  5  1  0
  2  9  1  0
  5 10  1  0
  6 11  1  0
  6 12  1  0
  8 13  1  0
  8 14  1  0
M  END
