
     RDKit          3D

 15 15  0  0  0  0  0  0  0  0999 V2000
   -2.9903   -0.2631   -0.7798 O   0  0  0  0  0  0  0  0  0  0  0  0
   -2.2861    0.3690   -0.0175 C   0  0  0  0  0  0  0  0  0  0  0  0
   -0.8035    0.3459   -0.2013 C   0  0  0  0  0  0  0  0  0  0  0  0
   -0.2459   -1.0306   -0.1877 C   0  0  0  0  0  0  0  0  0  0  0  0
    1.2289   -0.9832   -0.2687 C   0  0  0  0  0  0  0  0  0  0  0  0
    1.8912    0.0760    0.1667 C   0  0  0  0  0  0  0  0  0  0  0  0
    1.1953    1.2418    0.7430 C   0  0  0  0  0  0  0  0  0  0  0  0
    1.8068    2.2480    1.1607 O   0  0  0  0  0  0  0  0  0  0  0  0
   -0.1857    1.1453    0.7909 O   0  0  0  0  0  0  0  0  0  0  0  0
   -2.6922    0.9431    0.7829 H   0  0  0  0  0  0  0  0  0  0  0  0
   -0.5239    0.8025   -1.1908 H   0  0  0  0  0  0  0  0  0  0  0  0
   -0.5357   -1.6251    0.7030 H   0  0  0  0  0  0  0  0  0  0  0  0
   -0.6145   -1.5484   -1.1173 H   0  0  0  0  0  0  0  0  0  0  0  0
    1.7838   -1.8386   -0.6961 H   0  0  0  0  0  0  0  0  0  0  0  0
    2.9719    0.1173    0.1118 H   0  0  0  0  0  0  0  0  0  0  0  0
  1  2  2  0
  2  3  1  0
  3  4  1  0
  4  5  1  0
  5  6  2  0
  6  7  1  0
  7  8  2  0
  7  9  1  0
  9  3  1  0
  2 10  1  0
  3 11  1  0
  4 12  1  0
  4 13  1  0
  5 14  1  0
  6 15  1  0
M  END
