
     RDKit          3D

 15 16  0  0  0  0  0  0  0  0999 V2000
    4.2143    1.2375   -0.1502 O   0  0  0  0  0  0  0  0  0  0  0  0
    3.6001    0.2334    0.1131 C   0  0  0  0  0  0  0  0  0  0  0  0
    2.2013   -0.0244   -0.0575 C   0  0  0  0  0  0  0  0  0  0  0  0
    0.9835   -0.2264   -0.2047 C   0  0  0  0  0  0  0  0  0  0  0  0
   -0.4475   -0.4443   -0.3916 C   0  0  0  0  0  0  0  0  0  0  0  0
   -1.1983   -0.5518    0.9106 C   0  0  0  0  0  0  0  0  0  0  0  0
   -2.3819   -0.0523    0.1861 C   0  0  0  0  0  0  0  0  0  0  0  0
   -1.2539    0.8020   -0.2122 C   0  0  0  0  0  0  0  0  0  0  0  0
   -0.8600    0.7853    1.1140 O   0  0  0  0  0  0  0  0  0  0  0  0
    4.2160   -0.6261    0.5562 H   0  0  0  0  0  0  0  0  0  0  0  0
   -0.7590   -1.1284   -1.2119 H   0  0  0  0  0  0  0  0  0  0  0  0
   -1.1099   -1.3068    1.5867 H   0  0  0  0  0  0  0  0  0  0  0  0
   -3.1392    0.3526    0.9021 H   0  0  0  0  0  0  0  0  0  0  0  0
   -2.8114   -0.6598   -0.6368 H   0  0  0  0  0  0  0  0  0  0  0  0
   -1.2540    1.6093   -0.8203 H   0  0  0  0  0  0  0  0  0  0  0  0
  1  2  2  0
  2  3  1  0
  3  4  3  0
  4  5  1  0
  5  6  1  0
  6  7  1  0
  7  8  1  0
  8  9  1  0
  8  5  1  0
  9  6  1  0
  2 10  1  0
  5 11  1  0
  6 12  1  0
  7 13  1  0
  7 14  1  0
  8 15  1  0
M  END
