
     RDKit          3D

 11 11  0  0  0  0  0  0  0  0999 V2000
    2.2119   -0.6727    0.6300 O   0  0  0  0  0  0  0  0  0  0  0  0
    1.4758    0.1214    0.0721 C   0  0  0  0  0  0  0  0  0  0  0  0
    0.2680   -0.3926   -0.5766 C   0  0  0  0  0  0  0  0  0  0  0  0
   -0.9379   -0.5518    0.3333 C   0  0  0  0  0  0  0  0  0  0  0  0
   -0.9958    0.9118    0.0920 C   0  0  0  0  0  0  0  0  0  0  0  0
   -1.3236    1.9678    0.6577 O   0  0  0  0  0  0  0  0  0  0  0  0
   -0.4780    0.6530   -1.1774 O   0  0  0  0  0  0  0  0  0  0  0  0
    1.7296    1.1572    0.0722 H   0  0  0  0  0  0  0  0  0  0  0  0
    0.4039   -1.2247   -1.2931 H   0  0  0  0  0  0  0  0  0  0  0  0
   -1.7358   -1.1053   -0.1483 H   0  0  0  0  0  0  0  0  0  0  0  0
   -0.6182   -0.8640    1.3381 H   0  0  0  0  0  0  0  0  0  0  0  0
  1  2  2  0
  2  3  1  0
  3  4  1  0
  4  5  1  0
  5  6  2  0
  5  7  1  0
  7  3  1  0
  2  8  1  0
  3  9  1  0
  4 10  1  0
  4 11  1  0
M  END
