
     RDKit          3D

 17 18  0  0  0  0  0  0  0  0999 V2000
    2.2601   -2.0700   -0.0950 O   0  0  0  0  0  0  0  0  0  0  0  0
    1.8168   -1.1702    0.5733 C   0  0  0  0  0  0  0  0  0  0  0  0
    1.3107    0.0899    0.0173 C   0  0  0  0  0  0  0  0  0  0  0  0
    1.3672    0.2055   -1.3708 O   0  0  0  0  0  0  0  0  0  0  0  0
    0.2144    1.0233   -1.2842 C   0  0  0  0  0  0  0  0  0  0  0  0
   -0.1286    0.3241   -0.0343 C   0  0  0  0  0  0  0  0  0  0  0  0
   -1.0032    0.7628    1.0143 C   0  0  0  0  0  0  0  0  0  0  0  0
   -1.2230   -0.5491    0.2183 C   0  0  0  0  0  0  0  0  0  0  0  0
   -2.3602   -0.5260   -0.5921 O   0  0  0  0  0  0  0  0  0  0  0  0
    1.7892   -1.2967    1.6499 H   0  0  0  0  0  0  0  0  0  0  0  0
    1.8568    0.9776    0.4546 H   0  0  0  0  0  0  0  0  0  0  0  0
   -0.4176    0.8354   -2.1737 H   0  0  0  0  0  0  0  0  0  0  0  0
    0.4737    2.0870   -1.1030 H   0  0  0  0  0  0  0  0  0  0  0  0
   -0.6650    0.6289    2.0816 H   0  0  0  0  0  0  0  0  0  0  0  0
   -1.7901    1.5352    0.9305 H   0  0  0  0  0  0  0  0  0  0  0  0
   -1.1418   -1.4865    0.8321 H   0  0  0  0  0  0  0  0  0  0  0  0
   -2.3595   -1.3713   -1.1190 H   0  0  0  0  0  0  0  0  0  0  0  0
  1  2  2  0
  2  3  1  0
  3  4  1  0
  4  5  1  0
  5  6  1  0
  6  7  1  0
  7  8  1  0
  8  9  1  0
  6  3  1  0
  8  6  1  0
  2 10  1  0
  3 11  1  0
  5 12  1  0
  5 13  1  0
  7 14  1  0
  7 15  1  0
  8 16  1  0
  9 17  1  0
M  END
