
     RDKit          3D

 13 13  0  0  0  0  0  0  0  0999 V2000
    3.4193    0.5349    2.4332 O   0  0  0  0  0  0  0  0  0  0  0  0
    2.9569   -0.5084    1.9248 C   0  0  0  0  0  0  0  0  0  0  0  0
    1.6648   -0.4625    1.3223 C   0  0  0  0  0  0  0  0  0  0  0  0
    0.5647   -0.4370    0.7955 C   0  0  0  0  0  0  0  0  0  0  0  0
   -0.7605   -0.4159    0.1803 C   0  0  0  0  0  0  0  0  0  0  0  0
   -1.4977    0.8308    0.4742 O   0  0  0  0  0  0  0  0  0  0  0  0
   -0.9906    0.5088   -0.8863 C   0  0  0  0  0  0  0  0  0  0  0  0
   -2.1293    0.4543   -1.8201 C   0  0  0  0  0  0  0  0  0  0  0  0
   -2.1930    1.1938   -2.7909 O   0  0  0  0  0  0  0  0  0  0  0  0
    3.5048   -1.4132    1.9357 H   0  0  0  0  0  0  0  0  0  0  0  0
   -1.4137   -1.2628    0.3783 H   0  0  0  0  0  0  0  0  0  0  0  0
   -0.2129    1.2582   -1.1294 H   0  0  0  0  0  0  0  0  0  0  0  0
   -2.9128   -0.2811   -1.5996 H   0  0  0  0  0  0  0  0  0  0  0  0
  1  2  2  0
  2  3  1  0
  3  4  3  0
  4  5  1  0
  5  6  1  0
  6  7  1  0
  7  8  1  0
  8  9  2  0
  7  5  1  0
  2 10  1  0
  5 11  1  0
  7 12  1  0
  8 13  1  0
M  END
