
     RDKit          3D

 16 16  0  0  0  0  0  0  0  0999 V2000
   -2.6417    1.0452   -0.3996 O   0  0  0  0  0  0  0  0  0  0  0  0
   -2.0507   -0.0193   -0.3348 C   0  0  0  0  0  0  0  0  0  0  0  0
   -0.6470   -0.1125    0.1298 C   0  0  0  0  0  0  0  0  0  0  0  0
    0.0336    1.1946   -0.2088 C   0  0  0  0  0  0  0  0  0  0  0  0
    1.3426    0.9905   -0.6568 O   0  0  0  0  0  0  0  0  0  0  0  0
    1.9544   -0.0432    0.0057 C   0  0  0  0  0  0  0  0  0  0  0  0
    1.4110   -1.2560   -0.4003 O   0  0  0  0  0  0  0  0  0  0  0  0
    0.0614   -1.1867   -0.6737 C   0  0  0  0  0  0  0  0  0  0  0  0
   -2.5996   -0.9041   -0.6342 H   0  0  0  0  0  0  0  0  0  0  0  0
   -0.6632   -0.3325    1.2058 H   0  0  0  0  0  0  0  0  0  0  0  0
   -0.5051    1.6820   -1.0646 H   0  0  0  0  0  0  0  0  0  0  0  0
   -0.0082    1.8932    0.6392 H   0  0  0  0  0  0  0  0  0  0  0  0
    1.8002    0.0968    1.1099 H   0  0  0  0  0  0  0  0  0  0  0  0
    3.0401   -0.0154   -0.1594 H   0  0  0  0  0  0  0  0  0  0  0  0
   -0.0647   -0.8848   -1.7511 H   0  0  0  0  0  0  0  0  0  0  0  0
   -0.4631   -2.1477   -0.4677 H   0  0  0  0  0  0  0  0  0  0  0  0
  1  2  2  0
  2  3  1  0
  3  4  1  0
  4  5  1  0
  5  6  1  0
  6  7  1  0
  7  8  1  0
  8  3  1  0
  2  9  1  0
  3 10  1  0
  4 11  1  0
  4 12  1  0
  6 13  1  0
  6 14  1  0
  8 15  1  0
  8 16  1  0
M  END
