
     RDKit          3D

 19 21  0  0  0  0  0  0  0  0999 V2000
   -2.9667    1.7034   -0.3943 O   0  0  0  0  0  0  0  0  0  0  0  0
   -2.4171    0.6500   -0.5675 C   0  0  0  0  0  0  0  0  0  0  0  0
   -1.2334    0.3108    0.2410 C   0  0  0  0  0  0  0  0  0  0  0  0
   -1.2275   -0.9314    1.0400 C   0  0  0  0  0  0  0  0  0  0  0  0
   -0.3935   -0.9077   -0.2067 C   0  0  0  0  0  0  0  0  0  0  0  0
    0.8093   -0.0380   -0.1486 C   0  0  0  0  0  0  0  0  0  0  0  0
    2.0388   -0.3527    0.5506 C   0  0  0  0  0  0  0  0  0  0  0  0
    1.9849   -0.1365   -0.9704 C   0  0  0  0  0  0  0  0  0  0  0  0
   -0.0231    1.1637    0.0681 C   0  0  0  0  0  0  0  0  0  0  0  0
   -2.8072   -0.0279   -1.3177 H   0  0  0  0  0  0  0  0  0  0  0  0
   -0.6223   -1.0059    1.9761 H   0  0  0  0  0  0  0  0  0  0  0  0
   -2.1748   -1.4828    1.0813 H   0  0  0  0  0  0  0  0  0  0  0  0
   -0.7477   -1.3741   -1.1276 H   0  0  0  0  0  0  0  0  0  0  0  0
    2.1821   -1.3854    0.9117 H   0  0  0  0  0  0  0  0  0  0  0  0
    2.5797    0.4227    1.1401 H   0  0  0  0  0  0  0  0  0  0  0  0
    2.4561    0.8266   -1.3143 H   0  0  0  0  0  0  0  0  0  0  0  0
    2.2883   -0.9934   -1.5625 H   0  0  0  0  0  0  0  0  0  0  0  0
   -0.0410    1.8175   -0.8239 H   0  0  0  0  0  0  0  0  0  0  0  0
    0.3150    1.7412    0.9461 H   0  0  0  0  0  0  0  0  0  0  0  0
  1  2  2  0
  2  3  1  0
  3  4  1  0
  4  5  1  0
  5  6  1  0
  6  7  1  0
  7  8  1  0
  6  9  1  0
  5  3  1  0
  8  6  1  0
  9  3  1  0
  2 10  1  0
  4 11  1  0
  4 12  1  0
  5 13  1  0
  7 14  1  0
  7 15  1  0
  8 16  1  0
  8 17  1  0
  9 18  1  0
  9 19  1  0
M  END
