
     RDKit          3D

 17 16  0  0  0  0  0  0  0  0999 V2000
   -0.7983   -2.2286    1.8447 O   0  0  0  0  0  0  0  0  0  0  0  0
   -0.8575   -1.6508    0.7937 C   0  0  0  0  0  0  0  0  0  0  0  0
   -0.5072   -0.2229    0.7335 C   0  0  0  0  0  0  0  0  0  0  0  0
   -1.3099    0.4072   -0.3855 C   0  0  0  0  0  0  0  0  0  0  0  0
   -2.6742    0.2641   -0.1397 O   0  0  0  0  0  0  0  0  0  0  0  0
    0.9530   -0.1121    0.4988 C   0  0  0  0  0  0  0  0  0  0  0  0
    1.6008   -1.1359    0.3976 O   0  0  0  0  0  0  0  0  0  0  0  0
    1.6591    1.1901    0.3819 C   0  0  0  0  0  0  0  0  0  0  0  0
    2.9964    0.9988    0.1676 O   0  0  0  0  0  0  0  0  0  0  0  0
   -1.1592   -2.1550   -0.0944 H   0  0  0  0  0  0  0  0  0  0  0  0
   -0.8067    0.2462    1.6994 H   0  0  0  0  0  0  0  0  0  0  0  0
   -1.1033    1.4979   -0.4265 H   0  0  0  0  0  0  0  0  0  0  0  0
   -1.1058   -0.0975   -1.3500 H   0  0  0  0  0  0  0  0  0  0  0  0
   -2.9345   -0.7027   -0.0912 H   0  0  0  0  0  0  0  0  0  0  0  0
    1.5437    1.8090    1.3152 H   0  0  0  0  0  0  0  0  0  0  0  0
    1.2569    1.8214   -0.4402 H   0  0  0  0  0  0  0  0  0  0  0  0
    3.2467    0.0709   -0.0845 H   0  0  0  0  0  0  0  0  0  0  0  0
  1  2  2  0
  2  3  1  0
  3  4  1  0
  4  5  1  0
  3  6  1  0
  6  7  2  0
  6  8  1  0
  8  9  1  0
  2 10  1  0
  3 11  1  0
  4 12  1  0
  4 13  1  0
  5 14  1  0
  8 15  1  0
  8 16  1  0
  9 17  1  0
M  END
