
     RDKit          3D

 19 19  0  0  0  0  0  0  0  0999 V2000
   -1.3625    1.1532    2.0388 O   0  0  0  0  0  0  0  0  0  0  0  0
   -0.7849    0.2760    1.4278 C   0  0  0  0  0  0  0  0  0  0  0  0
   -1.2312   -0.0664    0.0648 C   0  0  0  0  0  0  0  0  0  0  0  0
   -0.7718    1.0211   -0.8744 C   0  0  0  0  0  0  0  0  0  0  0  0
    0.5358    1.5377   -0.3629 C   0  0  0  0  0  0  0  0  0  0  0  0
    1.5719    0.8318    0.0588 C   0  0  0  0  0  0  0  0  0  0  0  0
    1.6631   -0.6230    0.1166 C   0  0  0  0  0  0  0  0  0  0  0  0
    0.7601   -1.5554   -0.0785 C   0  0  0  0  0  0  0  0  0  0  0  0
   -0.6614   -1.3746   -0.4261 C   0  0  0  0  0  0  0  0  0  0  0  0
    0.0385   -0.2141    1.9243 H   0  0  0  0  0  0  0  0  0  0  0  0
   -2.3460   -0.1698   -0.0004 H   0  0  0  0  0  0  0  0  0  0  0  0
   -0.6684    0.5629   -1.8758 H   0  0  0  0  0  0  0  0  0  0  0  0
   -1.5246    1.8222   -0.8408 H   0  0  0  0  0  0  0  0  0  0  0  0
    0.6347    2.6187   -0.3397 H   0  0  0  0  0  0  0  0  0  0  0  0
    2.4400    1.3588    0.3956 H   0  0  0  0  0  0  0  0  0  0  0  0
    2.6473   -1.0113    0.3637 H   0  0  0  0  0  0  0  0  0  0  0  0
    1.0871   -2.5592    0.0251 H   0  0  0  0  0  0  0  0  0  0  0  0
   -1.2886   -2.2265   -0.0754 H   0  0  0  0  0  0  0  0  0  0  0  0
   -0.7392   -1.3820   -1.5414 H   0  0  0  0  0  0  0  0  0  0  0  0
  1  2  2  0
  2  3  1  0
  3  4  1  0
  4  5  1  0
  5  6  2  0
  6  7  1  0
  7  8  2  0
  8  9  1  0
  9  3  1  0
  2 10  1  0
  3 11  1  0
  4 12  1  0
  4 13  1  0
  5 14  1  0
  6 15  1  0
  7 16  1  0
  8 17  1  0
  9 18  1  0
  9 19  1  0
M  END
