
     RDKit          3D

 17 18  0  0  0  0  0  0  0  0999 V2000
    3.6636    0.0174    0.2096 O   0  0  0  0  0  0  0  0  0  0  0  0
    2.7281   -0.7211   -0.1877 C   0  0  0  0  0  0  0  0  0  0  0  0
    1.3446   -0.3023    0.0580 C   0  0  0  0  0  0  0  0  0  0  0  0
    0.2364   -0.9303   -0.2765 C   0  0  0  0  0  0  0  0  0  0  0  0
   -0.8700   -0.1121    0.1870 C   0  0  0  0  0  0  0  0  0  0  0  0
   -1.6908    0.7307   -0.6998 C   0  0  0  0  0  0  0  0  0  0  0  0
   -2.2773   -0.4426    0.0747 C   0  0  0  0  0  0  0  0  0  0  0  0
   -0.3126    0.5280    1.2928 O   0  0  0  0  0  0  0  0  0  0  0  0
    0.8998    0.9394    0.7427 C   0  0  0  0  0  0  0  0  0  0  0  0
    2.9100   -1.6536   -0.7039 H   0  0  0  0  0  0  0  0  0  0  0  0
    0.1837   -1.8649   -0.7917 H   0  0  0  0  0  0  0  0  0  0  0  0
   -1.9817    1.7274   -0.3494 H   0  0  0  0  0  0  0  0  0  0  0  0
   -1.6109    0.6517   -1.8024 H   0  0  0  0  0  0  0  0  0  0  0  0
   -2.5315   -1.3190   -0.5897 H   0  0  0  0  0  0  0  0  0  0  0  0
   -2.9908   -0.2200    0.8862 H   0  0  0  0  0  0  0  0  0  0  0  0
    0.6790    1.6773   -0.0477 H   0  0  0  0  0  0  0  0  0  0  0  0
    1.6203    1.2938    1.4921 H   0  0  0  0  0  0  0  0  0  0  0  0
  1  2  2  0
  2  3  1  0
  3  4  2  0
  4  5  1  0
  5  6  1  0
  6  7  1  0
  5  8  1  0
  8  9  1  0
  9  3  1  0
  7  5  1  0
  2 10  1  0
  4 11  1  0
  6 12  1  0
  6 13  1  0
  7 14  1  0
  7 15  1  0
  9 16  1  0
  9 17  1  0
M  END
