
     RDKit          3D

 19 20  0  0  0  0  0  0  0  0999 V2000
   -3.7869    0.1758    0.2132 O   0  0  0  0  0  0  0  0  0  0  0  0
   -2.7693    0.6725   -0.1800 C   0  0  0  0  0  0  0  0  0  0  0  0
   -1.5170    0.4284    0.5393 C   0  0  0  0  0  0  0  0  0  0  0  0
   -0.9048   -0.9625    0.3146 C   0  0  0  0  0  0  0  0  0  0  0  0
    0.4191   -0.2582    0.5168 C   0  0  0  0  0  0  0  0  0  0  0  0
    1.5795   -0.8181   -0.2367 C   0  0  0  0  0  0  0  0  0  0  0  0
    2.8828   -0.0849   -0.0062 C   0  0  0  0  0  0  0  0  0  0  0  0
    2.2194   -0.1125   -1.2200 O   0  0  0  0  0  0  0  0  0  0  0  0
   -0.2601    0.9455   -0.1492 C   0  0  0  0  0  0  0  0  0  0  0  0
   -2.7925    1.2984   -1.0674 H   0  0  0  0  0  0  0  0  0  0  0  0
   -1.4750    0.6557    1.6045 H   0  0  0  0  0  0  0  0  0  0  0  0
   -1.1045   -1.2656   -0.7434 H   0  0  0  0  0  0  0  0  0  0  0  0
   -1.1717   -1.7069    1.0678 H   0  0  0  0  0  0  0  0  0  0  0  0
    0.5807   -0.0345    1.5748 H   0  0  0  0  0  0  0  0  0  0  0  0
    1.6677   -1.9357   -0.1955 H   0  0  0  0  0  0  0  0  0  0  0  0
    2.8655    0.9073    0.5018 H   0  0  0  0  0  0  0  0  0  0  0  0
    3.8075   -0.6552    0.1509 H   0  0  0  0  0  0  0  0  0  0  0  0
    0.1137    1.9058    0.2197 H   0  0  0  0  0  0  0  0  0  0  0  0
   -0.3541    0.8449   -1.2505 H   0  0  0  0  0  0  0  0  0  0  0  0
  1  2  2  0
  2  3  1  0
  3  4  1  0
  4  5  1  0
  5  6  1  0
  6  7  1  0
  7  8  1  0
  5  9  1  0
  9  3  1  0
  8  6  1  0
  2 10  1  0
  3 11  1  0
  4 12  1  0
  4 13  1  0
  5 14  1  0
  6 15  1  0
  7 16  1  0
  7 17  1  0
  9 18  1  0
  9 19  1  0
M  END
