
     RDKit          3D

 17 18  0  0  0  0  0  0  0  0999 V2000
   -2.7584   -0.6335   -0.2545 O   0  0  0  0  0  0  0  0  0  0  0  0
   -1.7358   -1.2420   -0.0062 C   0  0  0  0  0  0  0  0  0  0  0  0
   -0.5053   -0.5709    0.4405 C   0  0  0  0  0  0  0  0  0  0  0  0
   -0.4897    0.8129   -0.2210 C   0  0  0  0  0  0  0  0  0  0  0  0
   -1.3765    1.6356    0.4106 O   0  0  0  0  0  0  0  0  0  0  0  0
    0.9510    1.1870   -0.0536 C   0  0  0  0  0  0  0  0  0  0  0  0
    1.6509   -0.1168   -0.4580 C   0  0  0  0  0  0  0  0  0  0  0  0
    1.9371   -0.9990    0.6041 O   0  0  0  0  0  0  0  0  0  0  0  0
    0.7525   -1.1754   -0.1345 C   0  0  0  0  0  0  0  0  0  0  0  0
   -1.7208   -2.3155   -0.1148 H   0  0  0  0  0  0  0  0  0  0  0  0
   -0.4506   -0.4490    1.5432 H   0  0  0  0  0  0  0  0  0  0  0  0
   -0.7093    0.6467   -1.2806 H   0  0  0  0  0  0  0  0  0  0  0  0
   -1.0219    2.0609    1.2095 H   0  0  0  0  0  0  0  0  0  0  0  0
    1.1821    1.4531    0.9843 H   0  0  0  0  0  0  0  0  0  0  0  0
    1.2793    1.9914   -0.7354 H   0  0  0  0  0  0  0  0  0  0  0  0
    2.3104   -0.1125   -1.3273 H   0  0  0  0  0  0  0  0  0  0  0  0
    0.7051   -2.1730   -0.6062 H   0  0  0  0  0  0  0  0  0  0  0  0
  1  2  2  0
  2  3  1  0
  3  4  1  0
  4  5  1  0
  4  6  1  0
  6  7  1  0
  7  8  1  0
  8  9  1  0
  9  3  1  0
  9  7  1  0
  2 10  1  0
  3 11  1  0
  4 12  1  0
  5 13  1  0
  6 14  1  0
  6 15  1  0
  7 16  1  0
  9 17  1  0
M  END
