
     RDKit          3D

 13 14  0  0  0  0  0  0  0  0999 V2000
    1.8402   -1.5839    0.9875 O   0  0  0  0  0  0  0  0  0  0  0  0
    1.6032   -0.7019    0.1811 C   0  0  0  0  0  0  0  0  0  0  0  0
    0.3952    0.1148    0.3501 C   0  0  0  0  0  0  0  0  0  0  0  0
    0.1717    1.3391   -0.4501 C   0  0  0  0  0  0  0  0  0  0  0  0
   -0.6766    0.1574   -0.6684 C   0  0  0  0  0  0  0  0  0  0  0  0
   -1.4360   -0.4930    0.4522 C   0  0  0  0  0  0  0  0  0  0  0  0
   -0.4669   -0.0991    1.3977 O   0  0  0  0  0  0  0  0  0  0  0  0
    2.2815   -0.5321   -0.6448 H   0  0  0  0  0  0  0  0  0  0  0  0
   -0.1939    2.2188    0.1558 H   0  0  0  0  0  0  0  0  0  0  0  0
    0.8978    1.6032   -1.2199 H   0  0  0  0  0  0  0  0  0  0  0  0
   -0.5773   -0.3543   -1.6449 H   0  0  0  0  0  0  0  0  0  0  0  0
   -1.4235   -1.6063    0.4014 H   0  0  0  0  0  0  0  0  0  0  0  0
   -2.4153   -0.0626    0.7023 H   0  0  0  0  0  0  0  0  0  0  0  0
  1  2  2  0
  2  3  1  0
  3  4  1  0
  4  5  1  0
  5  6  1  0
  6  7  1  0
  5  3  1  0
  7  3  1  0
  2  8  1  0
  4  9  1  0
  4 10  1  0
  5 11  1  0
  6 12  1  0
  6 13  1  0
M  END
