
     RDKit          3D

 19 19  0  0  0  0  0  0  0  0999 V2000
    1.1802    2.4938   -1.0491 O   0  0  0  0  0  0  0  0  0  0  0  0
    1.0030    1.8622    0.0391 C   0  0  0  0  0  0  0  0  0  0  0  0
    0.5629    0.4698   -0.1380 C   0  0  0  0  0  0  0  0  0  0  0  0
   -0.7567    0.1823    0.4885 C   0  0  0  0  0  0  0  0  0  0  0  0
   -0.8491    0.3519    1.8256 O   0  0  0  0  0  0  0  0  0  0  0  0
   -1.5208   -0.9529   -0.1492 C   0  0  0  0  0  0  0  0  0  0  0  0
   -2.8887   -0.7314   -0.0013 O   0  0  0  0  0  0  0  0  0  0  0  0
    1.6796   -0.5010    0.2701 C   0  0  0  0  0  0  0  0  0  0  0  0
    1.2091   -0.3576   -1.1355 C   0  0  0  0  0  0  0  0  0  0  0  0
    1.1946    2.3858    1.0036 H   0  0  0  0  0  0  0  0  0  0  0  0
   -1.4170    1.1000    0.1345 H   0  0  0  0  0  0  0  0  0  0  0  0
   -0.4235   -0.3074    2.4217 H   0  0  0  0  0  0  0  0  0  0  0  0
   -1.2844   -1.9153    0.4256 H   0  0  0  0  0  0  0  0  0  0  0  0
   -1.2739   -1.0004   -1.1879 H   0  0  0  0  0  0  0  0  0  0  0  0
   -3.2554   -0.3914   -0.8991 H   0  0  0  0  0  0  0  0  0  0  0  0
    2.6746   -0.0689    0.4855 H   0  0  0  0  0  0  0  0  0  0  0  0
    1.4128   -1.3733    0.8970 H   0  0  0  0  0  0  0  0  0  0  0  0
    1.9076    0.0958   -1.9015 H   0  0  0  0  0  0  0  0  0  0  0  0
    0.8452   -1.3420   -1.5294 H   0  0  0  0  0  0  0  0  0  0  0  0
  1  2  2  0
  2  3  1  0
  3  4  1  0
  4  5  1  0
  4  6  1  0
  6  7  1  0
  3  8  1  0
  8  9  1  0
  9  3  1  0
  2 10  1  0
  4 11  1  0
  5 12  1  0
  6 13  1  0
  6 14  1  0
  7 15  1  0
  8 16  1  0
  8 17  1  0
  9 18  1  0
  9 19  1  0
M  END
