
     RDKit          3D

 15 15  0  0  0  0  0  0  0  0999 V2000
   -2.5493    1.3561    0.1051 O   0  0  0  0  0  0  0  0  0  0  0  0
   -2.2837    0.1809   -0.0452 C   0  0  0  0  0  0  0  0  0  0  0  0
   -0.9767   -0.1989   -0.6292 C   0  0  0  0  0  0  0  0  0  0  0  0
   -0.2568   -1.0031    0.4068 C   0  0  0  0  0  0  0  0  0  0  0  0
    1.0159   -0.8614    0.6946 C   0  0  0  0  0  0  0  0  0  0  0  0
    1.8379    0.1499   -0.0275 C   0  0  0  0  0  0  0  0  0  0  0  0
    0.9349    1.3084   -0.2722 C   0  0  0  0  0  0  0  0  0  0  0  0
    1.2356    2.4840    0.0642 O   0  0  0  0  0  0  0  0  0  0  0  0
   -0.2729    0.9954   -0.9035 O   0  0  0  0  0  0  0  0  0  0  0  0
   -3.0214   -0.5847    0.2561 H   0  0  0  0  0  0  0  0  0  0  0  0
   -1.1483   -0.7954   -1.5514 H   0  0  0  0  0  0  0  0  0  0  0  0
   -0.8454   -1.7428    0.9393 H   0  0  0  0  0  0  0  0  0  0  0  0
    1.4990   -1.4578    1.4458 H   0  0  0  0  0  0  0  0  0  0  0  0
    2.7417    0.4425    0.5425 H   0  0  0  0  0  0  0  0  0  0  0  0
    2.0895   -0.2730   -1.0254 H   0  0  0  0  0  0  0  0  0  0  0  0
  1  2  2  0
  2  3  1  0
  3  4  1  0
  4  5  2  0
  5  6  1  0
  6  7  1  0
  7  8  2  0
  7  9  1  0
  9  3  1  0
  2 10  1  0
  3 11  1  0
  4 12  1  0
  5 13  1  0
  6 14  1  0
  6 15  1  0
M  END
