
     RDKit          3D

 19 18  0  0  0  0  0  0  0  0999 V2000
   -3.3929    0.9429    0.6082 O   0  0  0  0  0  0  0  0  0  0  0  0
   -2.4199    0.8537   -0.1220 C   0  0  0  0  0  0  0  0  0  0  0  0
   -1.9822   -0.4361   -0.6944 C   0  0  0  0  0  0  0  0  0  0  0  0
   -1.2601   -1.1980    0.3927 C   0  0  0  0  0  0  0  0  0  0  0  0
   -0.1501   -0.5226    0.8724 O   0  0  0  0  0  0  0  0  0  0  0  0
    0.8041   -0.2650   -0.0954 C   0  0  0  0  0  0  0  0  0  0  0  0
    1.9431    0.4706    0.5753 C   0  0  0  0  0  0  0  0  0  0  0  0
    3.0354    0.8032   -0.3711 C   0  0  0  0  0  0  0  0  0  0  0  0
    3.9912    1.4003    0.1000 O   0  0  0  0  0  0  0  0  0  0  0  0
   -1.8788    1.7513   -0.3432 H   0  0  0  0  0  0  0  0  0  0  0  0
   -2.9188   -1.0213   -0.9109 H   0  0  0  0  0  0  0  0  0  0  0  0
   -1.4109   -0.3431   -1.6160 H   0  0  0  0  0  0  0  0  0  0  0  0
   -1.0352   -2.2354    0.0644 H   0  0  0  0  0  0  0  0  0  0  0  0
   -1.9686   -1.2940    1.2431 H   0  0  0  0  0  0  0  0  0  0  0  0
    1.1893   -1.1542   -0.6001 H   0  0  0  0  0  0  0  0  0  0  0  0
    0.3978    0.4355   -0.8818 H   0  0  0  0  0  0  0  0  0  0  0  0
    2.4030   -0.1908    1.3652 H   0  0  0  0  0  0  0  0  0  0  0  0
    1.5935    1.4315    1.0152 H   0  0  0  0  0  0  0  0  0  0  0  0
    3.0603    0.5715   -1.4089 H   0  0  0  0  0  0  0  0  0  0  0  0
  1  2  2  0
  2  3  1  0
  3  4  1  0
  4  5  1  0
  5  6  1  0
  6  7  1  0
  7  8  1  0
  8  9  2  0
  2 10  1  0
  3 11  1  0
  3 12  1  0
  4 13  1  0
  4 14  1  0
  6 15  1  0
  6 16  1  0
  7 17  1  0
  7 18  1  0
  8 19  1  0
M  END
