
     RDKit          3D

 15 15  0  0  0  0  0  0  0  0999 V2000
    2.4610    0.0572    1.3655 O   0  0  0  0  0  0  0  0  0  0  0  0
    1.8680   -0.6312    0.5621 C   0  0  0  0  0  0  0  0  0  0  0  0
    1.0327   -0.0562   -0.5075 C   0  0  0  0  0  0  0  0  0  0  0  0
   -0.2985    0.4488   -0.0214 C   0  0  0  0  0  0  0  0  0  0  0  0
   -0.2661    1.4394    0.9278 O   0  0  0  0  0  0  0  0  0  0  0  0
   -1.3016   -0.6320    0.2651 C   0  0  0  0  0  0  0  0  0  0  0  0
   -2.0120   -0.3997   -0.9223 O   0  0  0  0  0  0  0  0  0  0  0  0
   -1.2022    0.6866   -1.1757 C   0  0  0  0  0  0  0  0  0  0  0  0
   -1.1930    1.5845   -2.0562 O   0  0  0  0  0  0  0  0  0  0  0  0
    1.9555   -1.7024    0.6334 H   0  0  0  0  0  0  0  0  0  0  0  0
    0.8701   -0.7269   -1.3552 H   0  0  0  0  0  0  0  0  0  0  0  0
    1.5943    0.8289   -0.9135 H   0  0  0  0  0  0  0  0  0  0  0  0
   -0.8281    1.1953    1.6850 H   0  0  0  0  0  0  0  0  0  0  0  0
   -1.8991   -0.4804    1.1830 H   0  0  0  0  0  0  0  0  0  0  0  0
   -0.7811   -1.6117    0.3298 H   0  0  0  0  0  0  0  0  0  0  0  0
  1  2  2  0
  2  3  1  0
  3  4  1  0
  4  5  1  0
  4  6  1  0
  6  7  1  0
  7  8  1  0
  8  9  2  0
  8  4  1  0
  2 10  1  0
  3 11  1  0
  3 12  1  0
  5 13  1  0
  6 14  1  0
  6 15  1  0
M  END
