
     RDKit          3D

 17 19  0  0  0  0  0  0  0  0999 V2000
   -2.5289    1.8558   -0.3433 O   0  0  0  0  0  0  0  0  0  0  0  0
   -1.6331    1.4884    0.3966 C   0  0  0  0  0  0  0  0  0  0  0  0
   -0.7097    0.4671   -0.0081 C   0  0  0  0  0  0  0  0  0  0  0  0
   -0.8659   -0.9268    0.5138 C   0  0  0  0  0  0  0  0  0  0  0  0
   -0.1627   -1.1830   -0.7905 C   0  0  0  0  0  0  0  0  0  0  0  0
   -0.8957   -0.0825   -1.2987 O   0  0  0  0  0  0  0  0  0  0  0  0
    1.2135   -0.5840   -0.6933 C   0  0  0  0  0  0  0  0  0  0  0  0
    1.7665   -0.0915    0.5802 C   0  0  0  0  0  0  0  0  0  0  0  0
    0.7629    0.7818   -0.0501 C   0  0  0  0  0  0  0  0  0  0  0  0
   -1.5528    1.9535    1.3678 H   0  0  0  0  0  0  0  0  0  0  0  0
   -0.3550   -1.1991    1.4309 H   0  0  0  0  0  0  0  0  0  0  0  0
   -1.9280   -1.2404    0.4210 H   0  0  0  0  0  0  0  0  0  0  0  0
   -0.2953   -2.1226   -1.2837 H   0  0  0  0  0  0  0  0  0  0  0  0
    1.7657   -0.5146   -1.6269 H   0  0  0  0  0  0  0  0  0  0  0  0
    2.8200    0.2947    0.4976 H   0  0  0  0  0  0  0  0  0  0  0  0
    1.5724   -0.5544    1.5447 H   0  0  0  0  0  0  0  0  0  0  0  0
    1.0261    1.6577   -0.6581 H   0  0  0  0  0  0  0  0  0  0  0  0
  1  2  2  0
  2  3  1  0
  3  4  1  0
  4  5  1  0
  5  6  1  0
  5  7  1  0
  7  8  1  0
  8  9  1  0
  6  3  1  0
  9  7  1  0
  9  3  1  0
  2 10  1  0
  4 11  1  0
  4 12  1  0
  5 13  1  0
  7 14  1  0
  8 15  1  0
  8 16  1  0
  9 17  1  0
M  END
