
     RDKit          3D

 15 15  0  0  0  0  0  0  0  0999 V2000
   -3.0123   -0.8315    0.5172 O   0  0  0  0  0  0  0  0  0  0  0  0
   -2.2452   -0.1386   -0.1142 C   0  0  0  0  0  0  0  0  0  0  0  0
   -0.8499   -0.0330    0.2891 C   0  0  0  0  0  0  0  0  0  0  0  0
    0.0335   -1.0432   -0.3492 C   0  0  0  0  0  0  0  0  0  0  0  0
    1.3447   -0.8682   -0.3578 C   0  0  0  0  0  0  0  0  0  0  0  0
    1.9224    0.3468    0.2763 C   0  0  0  0  0  0  0  0  0  0  0  0
    1.1110    1.4378   -0.1197 O   0  0  0  0  0  0  0  0  0  0  0  0
   -0.2683    1.3050   -0.0627 C   0  0  0  0  0  0  0  0  0  0  0  0
   -1.0433    2.2814   -0.2994 O   0  0  0  0  0  0  0  0  0  0  0  0
   -2.6119    0.3946   -0.9741 H   0  0  0  0  0  0  0  0  0  0  0  0
   -0.7281   -0.1009    1.4064 H   0  0  0  0  0  0  0  0  0  0  0  0
   -0.4415   -1.9045   -0.7934 H   0  0  0  0  0  0  0  0  0  0  0  0
    2.0266   -1.5755   -0.8099 H   0  0  0  0  0  0  0  0  0  0  0  0
    1.7842    0.2445    1.3826 H   0  0  0  0  0  0  0  0  0  0  0  0
    2.9781    0.4852    0.0089 H   0  0  0  0  0  0  0  0  0  0  0  0
  1  2  2  0
  2  3  1  0
  3  4  1  0
  4  5  2  0
  5  6  1  0
  6  7  1  0
  7  8  1  0
  8  9  2  0
  8  3  1  0
  2 10  1  0
  3 11  1  0
  4 12  1  0
  5 13  1  0
  6 14  1  0
  6 15  1  0
M  END
