
     RDKit          3D

 20 20  0  0  0  0  0  0  0  0999 V2000
    2.9088   -1.2553   -0.7060 O   0  0  0  0  0  0  0  0  0  0  0  0
    2.4262   -0.2780   -0.1833 C   0  0  0  0  0  0  0  0  0  0  0  0
    0.9859   -0.0775   -0.2497 C   0  0  0  0  0  0  0  0  0  0  0  0
    0.4894    1.0238    0.6752 C   0  0  0  0  0  0  0  0  0  0  0  0
   -0.8589    1.4310    0.0598 C   0  0  0  0  0  0  0  0  0  0  0  0
   -1.5752    0.2725   -0.5440 C   0  0  0  0  0  0  0  0  0  0  0  0
   -1.2413   -1.0516    0.0602 C   0  0  0  0  0  0  0  0  0  0  0  0
    0.2177   -1.3347    0.1726 C   0  0  0  0  0  0  0  0  0  0  0  0
    3.0576    0.4254    0.3195 H   0  0  0  0  0  0  0  0  0  0  0  0
    0.7156    0.1995   -1.3112 H   0  0  0  0  0  0  0  0  0  0  0  0
    1.2003    1.8564    0.6890 H   0  0  0  0  0  0  0  0  0  0  0  0
    0.3148    0.5784    1.6905 H   0  0  0  0  0  0  0  0  0  0  0  0
   -0.5677    2.1523   -0.7607 H   0  0  0  0  0  0  0  0  0  0  0  0
   -1.4782    1.9794    0.7644 H   0  0  0  0  0  0  0  0  0  0  0  0
   -1.4592    0.2868   -1.6610 H   0  0  0  0  0  0  0  0  0  0  0  0
   -2.6771    0.4400   -0.3719 H   0  0  0  0  0  0  0  0  0  0  0  0
   -1.7832   -1.1229    1.0347 H   0  0  0  0  0  0  0  0  0  0  0  0
   -1.6931   -1.8403   -0.5831 H   0  0  0  0  0  0  0  0  0  0  0  0
    0.5655   -2.2233   -0.3538 H   0  0  0  0  0  0  0  0  0  0  0  0
    0.4524   -1.4618    1.2588 H   0  0  0  0  0  0  0  0  0  0  0  0
  1  2  2  0
  2  3  1  0
  3  4  1  0
  4  5  1  0
  5  6  1  0
  6  7  1  0
  7  8  1  0
  8  3  1  0
  2  9  1  0
  3 10  1  0
  4 11  1  0
  4 12  1  0
  5 13  1  0
  5 14  1  0
  6 15  1  0
  6 16  1  0
  7 17  1  0
  7 18  1  0
  8 19  1  0
  8 20  1  0
M  END
