
     RDKit          3D

 21 22  0  0  0  0  0  0  0  0999 V2000
    2.4001    0.1928    1.6494 O   0  0  0  0  0  0  0  0  0  0  0  0
    2.7954   -0.2634    0.5885 C   0  0  0  0  0  0  0  0  0  0  0  0
    2.0122   -0.0362   -0.6264 C   0  0  0  0  0  0  0  0  0  0  0  0
    0.7900    0.7559   -0.3431 C   0  0  0  0  0  0  0  0  0  0  0  0
   -0.1661    0.1457    0.6244 C   0  0  0  0  0  0  0  0  0  0  0  0
   -0.7276   -1.2007    0.2256 C   0  0  0  0  0  0  0  0  0  0  0  0
   -2.0853   -0.5967    0.1609 C   0  0  0  0  0  0  0  0  0  0  0  0
   -2.2613    0.4715   -0.8754 C   0  0  0  0  0  0  0  0  0  0  0  0
   -1.5594    0.7474    0.4006 C   0  0  0  0  0  0  0  0  0  0  0  0
    3.7167   -0.8356    0.5228 H   0  0  0  0  0  0  0  0  0  0  0  0
    2.6463    0.5703   -1.3238 H   0  0  0  0  0  0  0  0  0  0  0  0
    1.7770   -0.9719   -1.1800 H   0  0  0  0  0  0  0  0  0  0  0  0
    0.2432    0.8965   -1.3067 H   0  0  0  0  0  0  0  0  0  0  0  0
    1.1116    1.7369    0.0867 H   0  0  0  0  0  0  0  0  0  0  0  0
    0.0713    0.2170    1.7017 H   0  0  0  0  0  0  0  0  0  0  0  0
   -0.5677   -2.0242    0.9166 H   0  0  0  0  0  0  0  0  0  0  0  0
   -0.3638   -1.4843   -0.8022 H   0  0  0  0  0  0  0  0  0  0  0  0
   -2.9307   -0.9831    0.7353 H   0  0  0  0  0  0  0  0  0  0  0  0
   -3.2385    0.9297   -0.9977 H   0  0  0  0  0  0  0  0  0  0  0  0
   -1.7178    0.2762   -1.8177 H   0  0  0  0  0  0  0  0  0  0  0  0
   -1.9456    1.4561    1.1295 H   0  0  0  0  0  0  0  0  0  0  0  0
  1  2  2  0
  2  3  1  0
  3  4  1  0
  4  5  1  0
  5  6  1  0
  6  7  1  0
  7  8  1  0
  8  9  1  0
  9  5  1  0
  9  7  1  0
  2 10  1  0
  3 11  1  0
  3 12  1  0
  4 13  1  0
  4 14  1  0
  5 15  1  0
  6 16  1  0
  6 17  1  0
  7 18  1  0
  8 19  1  0
  8 20  1  0
  9 21  1  0
M  END
