
     RDKit          3D

 17 18  0  0  0  0  0  0  0  0999 V2000
   -3.1289    1.4840    0.8222 O   0  0  0  0  0  0  0  0  0  0  0  0
   -1.9816    1.1046    0.7838 C   0  0  0  0  0  0  0  0  0  0  0  0
   -1.6610   -0.1325    0.0188 C   0  0  0  0  0  0  0  0  0  0  0  0
   -0.5117   -0.2379   -0.8457 C   0  0  0  0  0  0  0  0  0  0  0  0
    0.4052   -1.1819   -1.1101 O   0  0  0  0  0  0  0  0  0  0  0  0
    0.8630   -1.0090    0.1795 C   0  0  0  0  0  0  0  0  0  0  0  0
    1.8274    0.0098    0.5680 C   0  0  0  0  0  0  0  0  0  0  0  0
    1.5019    1.3397    0.3873 O   0  0  0  0  0  0  0  0  0  0  0  0
   -0.5684   -0.9118    0.5439 C   0  0  0  0  0  0  0  0  0  0  0  0
   -1.2453    1.6945    1.3148 H   0  0  0  0  0  0  0  0  0  0  0  0
   -2.6085   -0.5570   -0.4413 H   0  0  0  0  0  0  0  0  0  0  0  0
   -0.0658    0.7592   -0.9880 H   0  0  0  0  0  0  0  0  0  0  0  0
    1.3167   -2.0409    0.4527 H   0  0  0  0  0  0  0  0  0  0  0  0
    2.8878   -0.2031    0.2145 H   0  0  0  0  0  0  0  0  0  0  0  0
    1.9877   -0.0601    1.6950 H   0  0  0  0  0  0  0  0  0  0  0  0
    1.9386    1.9323    1.0437 H   0  0  0  0  0  0  0  0  0  0  0  0
   -0.9572   -1.9900    0.5819 H   0  0  0  0  0  0  0  0  0  0  0  0
  1  2  2  0
  2  3  1  0
  3  4  1  0
  4  5  1  0
  5  6  1  0
  6  7  1  0
  7  8  1  0
  6  9  1  0
  9  3  1  0
  9  4  1  0
  2 10  1  0
  3 11  1  0
  4 12  1  0
  6 13  1  0
  7 14  1  0
  7 15  1  0
  8 16  1  0
  9 17  1  0
M  END
