
     RDKit          3D

 15 15  0  0  0  0  0  0  0  0999 V2000
    2.1214    1.2509    0.8696 O   0  0  0  0  0  0  0  0  0  0  0  0
    2.5174    0.5251   -0.0213 C   0  0  0  0  0  0  0  0  0  0  0  0
    1.7565   -0.4593   -0.7827 C   0  0  0  0  0  0  0  0  0  0  0  0
    1.1153   -1.4967    0.0577 O   0  0  0  0  0  0  0  0  0  0  0  0
    0.3579   -0.6248   -0.8959 C   0  0  0  0  0  0  0  0  0  0  0  0
   -0.6939    0.0851   -0.1646 C   0  0  0  0  0  0  0  0  0  0  0  0
   -0.4052    0.8018    0.7667 O   0  0  0  0  0  0  0  0  0  0  0  0
   -2.1262   -0.0462   -0.5322 C   0  0  0  0  0  0  0  0  0  0  0  0
   -2.9098    0.7192    0.3065 O   0  0  0  0  0  0  0  0  0  0  0  0
    3.5983    0.6742   -0.2386 H   0  0  0  0  0  0  0  0  0  0  0  0
    2.3852   -1.0038   -1.5529 H   0  0  0  0  0  0  0  0  0  0  0  0
   -0.0346   -1.2605   -1.7222 H   0  0  0  0  0  0  0  0  0  0  0  0
   -2.2947    0.2687   -1.5830 H   0  0  0  0  0  0  0  0  0  0  0  0
   -2.4810   -1.1053   -0.4411 H   0  0  0  0  0  0  0  0  0  0  0  0
   -2.9064    1.6716    0.1233 H   0  0  0  0  0  0  0  0  0  0  0  0
  1  2  2  0
  2  3  1  0
  3  4  1  0
  4  5  1  0
  5  6  1  0
  6  7  2  0
  6  8  1  0
  8  9  1  0
  5  3  1  0
  2 10  1  0
  3 11  1  0
  5 12  1  0
  8 13  1  0
  8 14  1  0
  9 15  1  0
M  END
