
     RDKit          3D

 17 18  0  0  0  0  0  0  0  0999 V2000
   -3.1920   -0.4690    1.6593 O   0  0  0  0  0  0  0  0  0  0  0  0
   -2.2776    0.1531    1.1452 C   0  0  0  0  0  0  0  0  0  0  0  0
   -1.4381   -0.4209    0.0954 C   0  0  0  0  0  0  0  0  0  0  0  0
   -1.0938    0.5024   -1.0942 C   0  0  0  0  0  0  0  0  0  0  0  0
   -0.0533    0.0102   -0.1623 C   0  0  0  0  0  0  0  0  0  0  0  0
    0.9063   -1.0013   -0.6402 C   0  0  0  0  0  0  0  0  0  0  0  0
    2.1236   -0.6282   -0.2606 C   0  0  0  0  0  0  0  0  0  0  0  0
    1.9746    0.6642    0.4895 C   0  0  0  0  0  0  0  0  0  0  0  0
    0.6300    0.8807    0.6348 O   0  0  0  0  0  0  0  0  0  0  0  0
   -2.1244    1.1607    1.5149 H   0  0  0  0  0  0  0  0  0  0  0  0
   -1.6999   -1.4749   -0.1994 H   0  0  0  0  0  0  0  0  0  0  0  0
   -1.2068    0.0597   -2.1063 H   0  0  0  0  0  0  0  0  0  0  0  0
   -1.3535    1.5906   -0.9604 H   0  0  0  0  0  0  0  0  0  0  0  0
    0.7107   -1.8912   -1.1952 H   0  0  0  0  0  0  0  0  0  0  0  0
    3.0837   -1.0887   -0.4105 H   0  0  0  0  0  0  0  0  0  0  0  0
    2.5364    1.4640    0.0056 H   0  0  0  0  0  0  0  0  0  0  0  0
    2.4740    0.4886    1.4843 H   0  0  0  0  0  0  0  0  0  0  0  0
  1  2  2  0
  2  3  1  0
  3  4  1  0
  4  5  1  0
  5  6  1  0
  6  7  2  0
  7  8  1  0
  8  9  1  0
  5  3  1  0
  9  5  1  0
  2 10  1  0
  3 11  1  0
  4 12  1  0
  4 13  1  0
  6 14  1  0
  7 15  1  0
  8 16  1  0
  8 17  1  0
M  END
