
     RDKit          3D

 19 20  0  0  0  0  0  0  0  0999 V2000
   -2.3699   -1.3906    1.0423 O   0  0  0  0  0  0  0  0  0  0  0  0
   -1.1617   -1.6939    1.1400 C   0  0  0  0  0  0  0  0  0  0  0  0
   -0.0990   -0.8590    0.5390 C   0  0  0  0  0  0  0  0  0  0  0  0
    1.1857   -1.1374    0.6153 C   0  0  0  0  0  0  0  0  0  0  0  0
    2.0120   -0.1283   -0.0760 C   0  0  0  0  0  0  0  0  0  0  0  0
    1.0255    0.5570   -0.9831 C   0  0  0  0  0  0  0  0  0  0  0  0
   -0.2573    0.3826   -0.2270 C   0  0  0  0  0  0  0  0  0  0  0  0
   -1.4907    0.7752   -0.9061 C   0  0  0  0  0  0  0  0  0  0  0  0
   -1.0204    1.4682    0.3609 C   0  0  0  0  0  0  0  0  0  0  0  0
   -0.8978   -2.5806    1.6729 H   0  0  0  0  0  0  0  0  0  0  0  0
    1.6046   -2.0306    1.1401 H   0  0  0  0  0  0  0  0  0  0  0  0
    2.5284    0.5589    0.6138 H   0  0  0  0  0  0  0  0  0  0  0  0
    2.7562   -0.7065   -0.6966 H   0  0  0  0  0  0  0  0  0  0  0  0
    0.9920   -0.0352   -1.9310 H   0  0  0  0  0  0  0  0  0  0  0  0
    1.2943    1.5850   -1.2026 H   0  0  0  0  0  0  0  0  0  0  0  0
   -1.4081    1.4346   -1.8032 H   0  0  0  0  0  0  0  0  0  0  0  0
   -2.3329    0.0666   -0.8590 H   0  0  0  0  0  0  0  0  0  0  0  0
   -0.7002    2.5250    0.3156 H   0  0  0  0  0  0  0  0  0  0  0  0
   -1.6606    1.2089    1.2446 H   0  0  0  0  0  0  0  0  0  0  0  0
  1  2  2  0
  2  3  1  0
  3  4  2  0
  4  5  1  0
  5  6  1  0
  6  7  1  0
  7  8  1  0
  8  9  1  0
  7  3  1  0
  9  7  1  0
  2 10  1  0
  4 11  1  0
  5 12  1  0
  5 13  1  0
  6 14  1  0
  6 15  1  0
  8 16  1  0
  8 17  1  0
  9 18  1  0
  9 19  1  0
M  END
