
     RDKit          3D

 19 19  0  0  0  0  0  0  0  0999 V2000
    2.4800   -0.5036    1.1674 O   0  0  0  0  0  0  0  0  0  0  0  0
    2.2167   -0.5966   -0.0094 C   0  0  0  0  0  0  0  0  0  0  0  0
    1.4913    0.5177   -0.6464 C   0  0  0  0  0  0  0  0  0  0  0  0
    1.2236    1.5290    0.2594 O   0  0  0  0  0  0  0  0  0  0  0  0
    0.2051    0.0762   -1.3054 C   0  0  0  0  0  0  0  0  0  0  0  0
   -0.7553   -0.5440   -0.3408 C   0  0  0  0  0  0  0  0  0  0  0  0
   -0.2931   -1.6896    0.3242 O   0  0  0  0  0  0  0  0  0  0  0  0
   -2.2246   -0.4147   -0.5177 C   0  0  0  0  0  0  0  0  0  0  0  0
   -1.5757    0.4479    0.5008 C   0  0  0  0  0  0  0  0  0  0  0  0
    2.5070   -1.4695   -0.5659 H   0  0  0  0  0  0  0  0  0  0  0  0
    2.1674    0.9035   -1.4650 H   0  0  0  0  0  0  0  0  0  0  0  0
    1.5365    2.3791   -0.1108 H   0  0  0  0  0  0  0  0  0  0  0  0
    0.4077   -0.5706   -2.1729 H   0  0  0  0  0  0  0  0  0  0  0  0
   -0.2542    1.0163   -1.7175 H   0  0  0  0  0  0  0  0  0  0  0  0
   -0.5848   -1.6759    1.2886 H   0  0  0  0  0  0  0  0  0  0  0  0
   -2.6518    0.1079   -1.4023 H   0  0  0  0  0  0  0  0  0  0  0  0
   -2.8539   -1.2532   -0.1656 H   0  0  0  0  0  0  0  0  0  0  0  0
   -1.6074    0.2112    1.5731 H   0  0  0  0  0  0  0  0  0  0  0  0
   -1.4346    1.5290    0.2807 H   0  0  0  0  0  0  0  0  0  0  0  0
  1  2  2  0
  2  3  1  0
  3  4  1  0
  3  5  1  0
  5  6  1  0
  6  7  1  0
  6  8  1  0
  8  9  1  0
  9  6  1  0
  2 10  1  0
  3 11  1  0
  4 12  1  0
  5 13  1  0
  5 14  1  0
  7 15  1  0
  8 16  1  0
  8 17  1  0
  9 18  1  0
  9 19  1  0
M  END
