
     RDKit          3D

 17 18  0  0  0  0  0  0  0  0999 V2000
    3.6451    0.0562   -0.4378 O   0  0  0  0  0  0  0  0  0  0  0  0
    2.7311    0.7188    0.0065 C   0  0  0  0  0  0  0  0  0  0  0  0
    1.4780   -0.0159    0.3578 C   0  0  0  0  0  0  0  0  0  0  0  0
    0.8235   -0.5760   -0.8479 C   0  0  0  0  0  0  0  0  0  0  0  0
   -0.4829   -0.5727   -0.6222 C   0  0  0  0  0  0  0  0  0  0  0  0
   -1.9696   -0.6590   -0.5769 C   0  0  0  0  0  0  0  0  0  0  0  0
   -1.8888    0.6441    0.2397 C   0  0  0  0  0  0  0  0  0  0  0  0
   -0.6159    0.0216    0.7654 C   0  0  0  0  0  0  0  0  0  0  0  0
    0.4987    0.8405    0.8569 O   0  0  0  0  0  0  0  0  0  0  0  0
    2.7668    1.7917    0.1616 H   0  0  0  0  0  0  0  0  0  0  0  0
    1.6806   -0.8061    1.1266 H   0  0  0  0  0  0  0  0  0  0  0  0
    1.3273   -0.9324   -1.7686 H   0  0  0  0  0  0  0  0  0  0  0  0
   -2.4927   -0.5798   -1.5197 H   0  0  0  0  0  0  0  0  0  0  0  0
   -2.2645   -1.4876    0.1063 H   0  0  0  0  0  0  0  0  0  0  0  0
   -1.7314    1.5432   -0.3657 H   0  0  0  0  0  0  0  0  0  0  0  0
   -2.7235    0.7131    0.9592 H   0  0  0  0  0  0  0  0  0  0  0  0
   -0.7819   -0.6997    1.5588 H   0  0  0  0  0  0  0  0  0  0  0  0
  1  2  2  0
  2  3  1  0
  3  4  1  0
  4  5  2  0
  5  6  1  0
  6  7  1  0
  7  8  1  0
  8  9  1  0
  9  3  1  0
  8  5  1  0
  2 10  1  0
  3 11  1  0
  4 12  1  0
  6 13  1  0
  6 14  1  0
  7 15  1  0
  7 16  1  0
  8 17  1  0
M  END
