
     RDKit          3D

 19 19  0  0  0  0  0  0  0  0999 V2000
    2.2974   -0.5026   -2.0475 O   0  0  0  0  0  0  0  0  0  0  0  0
    1.5727    0.1716   -1.3096 C   0  0  0  0  0  0  0  0  0  0  0  0
    1.4570   -0.2319    0.1097 C   0  0  0  0  0  0  0  0  0  0  0  0
    2.4414    0.5389    0.9336 C   0  0  0  0  0  0  0  0  0  0  0  0
    2.2213    0.5952    2.1284 O   0  0  0  0  0  0  0  0  0  0  0  0
    0.0946    0.0563    0.6714 C   0  0  0  0  0  0  0  0  0  0  0  0
   -1.0167   -0.6388   -0.0297 C   0  0  0  0  0  0  0  0  0  0  0  0
   -2.4192   -0.4642    0.3952 C   0  0  0  0  0  0  0  0  0  0  0  0
   -1.9618    0.2616   -0.8140 C   0  0  0  0  0  0  0  0  0  0  0  0
    1.0420    1.0238   -1.6821 H   0  0  0  0  0  0  0  0  0  0  0  0
    1.7235   -1.3067    0.2663 H   0  0  0  0  0  0  0  0  0  0  0  0
    3.3066    1.0285    0.5247 H   0  0  0  0  0  0  0  0  0  0  0  0
    0.1163   -0.2467    1.7429 H   0  0  0  0  0  0  0  0  0  0  0  0
   -0.0905    1.1474    0.6433 H   0  0  0  0  0  0  0  0  0  0  0  0
   -0.8159   -1.6381   -0.5192 H   0  0  0  0  0  0  0  0  0  0  0  0
   -3.1684   -1.2633    0.2394 H   0  0  0  0  0  0  0  0  0  0  0  0
   -2.6723    0.1633    1.2978 H   0  0  0  0  0  0  0  0  0  0  0  0
   -1.8494    1.3612   -0.7200 H   0  0  0  0  0  0  0  0  0  0  0  0
   -2.2788   -0.0554   -1.8306 H   0  0  0  0  0  0  0  0  0  0  0  0
  1  2  2  0
  2  3  1  0
  3  4  1  0
  4  5  2  0
  3  6  1  0
  6  7  1  0
  7  8  1  0
  8  9  1  0
  9  7  1  0
  2 10  1  0
  3 11  1  0
  4 12  1  0
  6 13  1  0
  6 14  1  0
  7 15  1  0
  8 16  1  0
  8 17  1  0
  9 18  1  0
  9 19  1  0
M  END
