
     RDKit          3D

 15 16  0  0  0  0  0  0  0  0999 V2000
   -1.7283   -1.7440    1.1096 O   0  0  0  0  0  0  0  0  0  0  0  0
   -0.7937   -0.9820    1.0695 C   0  0  0  0  0  0  0  0  0  0  0  0
   -0.5315   -0.3606   -0.3189 C   0  0  0  0  0  0  0  0  0  0  0  0
    0.6981   -0.9207   -0.7551 C   0  0  0  0  0  0  0  0  0  0  0  0
    1.6926   -0.2410   -0.1908 C   0  0  0  0  0  0  0  0  0  0  0  0
    1.0130    0.7860    0.6082 C   0  0  0  0  0  0  0  0  0  0  0  0
    1.3338    1.2026    1.7060 O   0  0  0  0  0  0  0  0  0  0  0  0
   -0.0939    1.1333   -0.2622 C   0  0  0  0  0  0  0  0  0  0  0  0
   -1.4017    0.7020   -0.5443 C   0  0  0  0  0  0  0  0  0  0  0  0
   -0.1978   -0.7550    1.9182 H   0  0  0  0  0  0  0  0  0  0  0  0
    0.8755   -1.7670   -1.4391 H   0  0  0  0  0  0  0  0  0  0  0  0
    2.7875   -0.4244   -0.2828 H   0  0  0  0  0  0  0  0  0  0  0  0
    0.3796    1.5942   -1.1921 H   0  0  0  0  0  0  0  0  0  0  0  0
   -1.8287    0.7820   -1.5894 H   0  0  0  0  0  0  0  0  0  0  0  0
   -2.2045    0.9944    0.1632 H   0  0  0  0  0  0  0  0  0  0  0  0
  1  2  2  0
  2  3  1  0
  3  4  1  0
  4  5  2  0
  5  6  1  0
  6  7  2  0
  6  8  1  0
  8  9  1  0
  8  3  1  0
  9  3  1  0
  2 10  1  0
  4 11  1  0
  5 12  1  0
  8 13  1  0
  9 14  1  0
  9 15  1  0
M  END
