
     RDKit          3D

 19 19  0  0  0  0  0  0  0  0999 V2000
    3.1599    0.8276   -0.4605 O   0  0  0  0  0  0  0  0  0  0  0  0
    2.4986   -0.1255   -0.0856 C   0  0  0  0  0  0  0  0  0  0  0  0
    1.0176   -0.1890   -0.2436 C   0  0  0  0  0  0  0  0  0  0  0  0
    0.4631    1.0589    0.3770 C   0  0  0  0  0  0  0  0  0  0  0  0
   -0.8829    1.4509   -0.1794 C   0  0  0  0  0  0  0  0  0  0  0  0
   -1.8260    0.5965    0.4119 O   0  0  0  0  0  0  0  0  0  0  0  0
   -1.6661   -0.6377   -0.2530 C   0  0  0  0  0  0  0  0  0  0  0  0
   -0.7372   -1.5398    0.4703 C   0  0  0  0  0  0  0  0  0  0  0  0
    0.5827   -1.3565    0.2633 O   0  0  0  0  0  0  0  0  0  0  0  0
    3.0445   -0.9402    0.3762 H   0  0  0  0  0  0  0  0  0  0  0  0
    0.8289   -0.1743   -1.3487 H   0  0  0  0  0  0  0  0  0  0  0  0
    1.1613    1.8926    0.1070 H   0  0  0  0  0  0  0  0  0  0  0  0
    0.4414    0.9847    1.4619 H   0  0  0  0  0  0  0  0  0  0  0  0
   -0.9316    1.3147   -1.2683 H   0  0  0  0  0  0  0  0  0  0  0  0
   -1.0887    2.4877    0.1563 H   0  0  0  0  0  0  0  0  0  0  0  0
   -2.6856   -1.1120   -0.2326 H   0  0  0  0  0  0  0  0  0  0  0  0
   -1.4214   -0.4523   -1.2963 H   0  0  0  0  0  0  0  0  0  0  0  0
   -0.9947   -2.5976    0.1812 H   0  0  0  0  0  0  0  0  0  0  0  0
   -0.9640   -1.4887    1.5629 H   0  0  0  0  0  0  0  0  0  0  0  0
  1  2  2  0
  2  3  1  0
  3  4  1  0
  4  5  1  0
  5  6  1  0
  6  7  1  0
  7  8  1  0
  8  9  1  0
  9  3  1  0
  2 10  1  0
  3 11  1  0
  4 12  1  0
  4 13  1  0
  5 14  1  0
  5 15  1  0
  7 16  1  0
  7 17  1  0
  8 18  1  0
  8 19  1  0
M  END
