
     RDKit          3D

 19 19  0  0  0  0  0  0  0  0999 V2000
    2.4519   -1.0689    0.7421 O   0  0  0  0  0  0  0  0  0  0  0  0
    2.4762   -0.5019   -0.3288 C   0  0  0  0  0  0  0  0  0  0  0  0
    1.3546    0.3625   -0.7604 C   0  0  0  0  0  0  0  0  0  0  0  0
    0.3083    0.3697    0.3106 C   0  0  0  0  0  0  0  0  0  0  0  0
   -0.2183   -1.0121    0.5719 C   0  0  0  0  0  0  0  0  0  0  0  0
   -1.6012   -0.4093    0.7083 C   0  0  0  0  0  0  0  0  0  0  0  0
   -2.5841   -1.1159    0.0164 O   0  0  0  0  0  0  0  0  0  0  0  0
   -1.0771    0.7646   -0.1313 C   0  0  0  0  0  0  0  0  0  0  0  0
   -1.4902    1.9809    0.3739 O   0  0  0  0  0  0  0  0  0  0  0  0
    3.3409   -0.6473   -0.9567 H   0  0  0  0  0  0  0  0  0  0  0  0
    1.7401    1.3846   -0.9803 H   0  0  0  0  0  0  0  0  0  0  0  0
    0.9873   -0.0359   -1.7235 H   0  0  0  0  0  0  0  0  0  0  0  0
    0.5966    0.9098    1.2136 H   0  0  0  0  0  0  0  0  0  0  0  0
   -0.1901   -1.6180   -0.3707 H   0  0  0  0  0  0  0  0  0  0  0  0
    0.1986   -1.4813    1.4630 H   0  0  0  0  0  0  0  0  0  0  0  0
   -1.8843   -0.1282    1.7367 H   0  0  0  0  0  0  0  0  0  0  0  0
   -2.4223   -0.9776   -0.9487 H   0  0  0  0  0  0  0  0  0  0  0  0
   -1.2580    0.6151   -1.2161 H   0  0  0  0  0  0  0  0  0  0  0  0
   -0.7289    2.6090    0.2799 H   0  0  0  0  0  0  0  0  0  0  0  0
  1  2  2  0
  2  3  1  0
  3  4  1  0
  4  5  1  0
  5  6  1  0
  6  7  1  0
  6  8  1  0
  8  9  1  0
  8  4  1  0
  2 10  1  0
  3 11  1  0
  3 12  1  0
  4 13  1  0
  5 14  1  0
  5 15  1  0
  6 16  1  0
  7 17  1  0
  8 18  1  0
  9 19  1  0
M  END
