
     RDKit          3D

 17 18  0  0  0  0  0  0  0  0999 V2000
    2.0543    1.9643    0.0054 O   0  0  0  0  0  0  0  0  0  0  0  0
    2.0293    0.8474    0.4676 C   0  0  0  0  0  0  0  0  0  0  0  0
    1.1655   -0.1735   -0.1685 C   0  0  0  0  0  0  0  0  0  0  0  0
    0.4689    0.3050   -1.2570 O   0  0  0  0  0  0  0  0  0  0  0  0
   -0.8832    0.1017   -1.0255 C   0  0  0  0  0  0  0  0  0  0  0  0
   -1.2603    0.9528    0.1667 C   0  0  0  0  0  0  0  0  0  0  0  0
   -0.5940    0.3941    1.2530 O   0  0  0  0  0  0  0  0  0  0  0  0
    0.1242   -0.6984    0.7736 C   0  0  0  0  0  0  0  0  0  0  0  0
   -0.8491   -1.2507   -0.2872 C   0  0  0  0  0  0  0  0  0  0  0  0
    2.6189    0.5835    1.3265 H   0  0  0  0  0  0  0  0  0  0  0  0
    1.7993   -1.0362   -0.4953 H   0  0  0  0  0  0  0  0  0  0  0  0
   -1.5303    0.1296   -1.8611 H   0  0  0  0  0  0  0  0  0  0  0  0
   -2.3512    0.7907    0.3521 H   0  0  0  0  0  0  0  0  0  0  0  0
   -1.0211    2.0202    0.0121 H   0  0  0  0  0  0  0  0  0  0  0  0
    0.4286   -1.4165    1.4963 H   0  0  0  0  0  0  0  0  0  0  0  0
   -1.8122   -1.5013    0.1495 H   0  0  0  0  0  0  0  0  0  0  0  0
   -0.3877   -2.0128   -0.9080 H   0  0  0  0  0  0  0  0  0  0  0  0
  1  2  2  0
  2  3  1  0
  3  4  1  0
  4  5  1  0
  5  6  1  0
  6  7  1  0
  7  8  1  0
  8  9  1  0
  8  3  1  0
  9  5  1  0
  2 10  1  0
  3 11  1  0
  5 12  1  0
  6 13  1  0
  6 14  1  0
  8 15  1  0
  9 16  1  0
  9 17  1  0
M  END
