
     RDKit          3D

 17 17  0  0  0  0  0  0  0  0999 V2000
    2.0460    1.4944    0.6498 O   0  0  0  0  0  0  0  0  0  0  0  0
    1.9696    0.5877   -0.1432 C   0  0  0  0  0  0  0  0  0  0  0  0
    1.4123   -0.7112    0.2705 C   0  0  0  0  0  0  0  0  0  0  0  0
   -0.0594   -0.8430    0.2090 C   0  0  0  0  0  0  0  0  0  0  0  0
   -0.5786   -0.6351   -1.1724 C   0  0  0  0  0  0  0  0  0  0  0  0
   -0.2654   -1.0733   -2.2408 O   0  0  0  0  0  0  0  0  0  0  0  0
   -1.5817    0.2961   -0.6247 C   0  0  0  0  0  0  0  0  0  0  0  0
   -0.9633    0.1611    0.7744 C   0  0  0  0  0  0  0  0  0  0  0  0
   -0.5073    1.3819    1.1885 O   0  0  0  0  0  0  0  0  0  0  0  0
    2.3120    0.7430   -1.1465 H   0  0  0  0  0  0  0  0  0  0  0  0
    1.7672   -0.9992    1.3086 H   0  0  0  0  0  0  0  0  0  0  0  0
    1.8275   -1.5621   -0.3535 H   0  0  0  0  0  0  0  0  0  0  0  0
   -0.3332   -1.8749    0.5857 H   0  0  0  0  0  0  0  0  0  0  0  0
   -1.5669    1.3162   -1.0342 H   0  0  0  0  0  0  0  0  0  0  0  0
   -2.5958   -0.1201   -0.6757 H   0  0  0  0  0  0  0  0  0  0  0  0
   -1.7161   -0.2288    1.5021 H   0  0  0  0  0  0  0  0  0  0  0  0
   -1.1666    2.0674    0.9025 H   0  0  0  0  0  0  0  0  0  0  0  0
  1  2  2  0
  2  3  1  0
  3  4  1  0
  4  5  1  0
  5  6  2  0
  5  7  1  0
  7  8  1  0
  8  9  1  0
  8  4  1  0
  2 10  1  0
  3 11  1  0
  3 12  1  0
  4 13  1  0
  7 14  1  0
  7 15  1  0
  8 16  1  0
  9 17  1  0
M  END
