
     RDKit          3D

 21 21  0  0  0  0  0  0  0  0999 V2000
    2.1323    1.7306    0.0109 O   0  0  0  0  0  0  0  0  0  0  0  0
    1.2643    1.2453    0.7095 C   0  0  0  0  0  0  0  0  0  0  0  0
    0.4434    0.1640    0.1318 C   0  0  0  0  0  0  0  0  0  0  0  0
    1.4328   -0.8740   -0.4154 C   0  0  0  0  0  0  0  0  0  0  0  0
    2.2180   -1.3351    0.6336 O   0  0  0  0  0  0  0  0  0  0  0  0
   -0.5124   -0.4526    1.0893 C   0  0  0  0  0  0  0  0  0  0  0  0
   -1.7901   -0.6182    0.2751 C   0  0  0  0  0  0  0  0  0  0  0  0
   -1.8038    0.4967   -0.7174 C   0  0  0  0  0  0  0  0  0  0  0  0
   -0.3591    0.7527   -1.0056 C   0  0  0  0  0  0  0  0  0  0  0  0
    1.1229    1.6096    1.7058 H   0  0  0  0  0  0  0  0  0  0  0  0
    2.0250   -0.3447   -1.1941 H   0  0  0  0  0  0  0  0  0  0  0  0
    0.8398   -1.7155   -0.8543 H   0  0  0  0  0  0  0  0  0  0  0  0
    3.1436   -0.9518    0.5324 H   0  0  0  0  0  0  0  0  0  0  0  0
   -0.1713   -1.4824    1.3679 H   0  0  0  0  0  0  0  0  0  0  0  0
   -0.6942    0.1004    2.0066 H   0  0  0  0  0  0  0  0  0  0  0  0
   -1.7695   -1.5982   -0.2574 H   0  0  0  0  0  0  0  0  0  0  0  0
   -2.6536   -0.5360    0.9582 H   0  0  0  0  0  0  0  0  0  0  0  0
   -2.3033    1.4041   -0.2788 H   0  0  0  0  0  0  0  0  0  0  0  0
   -2.3492    0.2281   -1.6475 H   0  0  0  0  0  0  0  0  0  0  0  0
   -0.0009    0.3218   -1.9563 H   0  0  0  0  0  0  0  0  0  0  0  0
   -0.2146    1.8551   -1.0943 H   0  0  0  0  0  0  0  0  0  0  0  0
  1  2  2  0
  2  3  1  0
  3  4  1  0
  4  5  1  0
  3  6  1  0
  6  7  1  0
  7  8  1  0
  8  9  1  0
  9  3  1  0
  2 10  1  0
  4 11  1  0
  4 12  1  0
  5 13  1  0
  6 14  1  0
  6 15  1  0
  7 16  1  0
  7 17  1  0
  8 18  1  0
  8 19  1  0
  9 20  1  0
  9 21  1  0
M  END
