
     RDKit          3D

 19 19  0  0  0  0  0  0  0  0999 V2000
   -3.0038    1.1758   -0.9298 O   0  0  0  0  0  0  0  0  0  0  0  0
   -3.2565    0.4091   -0.0018 C   0  0  0  0  0  0  0  0  0  0  0  0
   -2.2296   -0.6085    0.3846 C   0  0  0  0  0  0  0  0  0  0  0  0
   -1.0168   -0.5185   -0.4622 C   0  0  0  0  0  0  0  0  0  0  0  0
   -0.9321   -1.1038   -1.5156 O   0  0  0  0  0  0  0  0  0  0  0  0
    0.0929    0.3076    0.0194 C   0  0  0  0  0  0  0  0  0  0  0  0
    1.4085   -0.3911    0.1291 C   0  0  0  0  0  0  0  0  0  0  0  0
    2.5454    0.4625    0.6297 C   0  0  0  0  0  0  0  0  0  0  0  0
    2.5767    0.0199   -0.7709 C   0  0  0  0  0  0  0  0  0  0  0  0
   -4.2157    0.5039    0.4990 H   0  0  0  0  0  0  0  0  0  0  0  0
   -1.9290   -0.4722    1.4447 H   0  0  0  0  0  0  0  0  0  0  0  0
   -2.6467   -1.6364    0.3093 H   0  0  0  0  0  0  0  0  0  0  0  0
   -0.1121    0.8446    0.9598 H   0  0  0  0  0  0  0  0  0  0  0  0
    0.2299    1.1286   -0.7465 H   0  0  0  0  0  0  0  0  0  0  0  0
    1.3659   -1.4618    0.3775 H   0  0  0  0  0  0  0  0  0  0  0  0
    2.3100    1.5100    0.9197 H   0  0  0  0  0  0  0  0  0  0  0  0
    3.2227   -0.0200    1.3694 H   0  0  0  0  0  0  0  0  0  0  0  0
    3.3177   -0.7975   -1.0066 H   0  0  0  0  0  0  0  0  0  0  0  0
    2.2726    0.6480   -1.6088 H   0  0  0  0  0  0  0  0  0  0  0  0
  1  2  2  0
  2  3  1  0
  3  4  1  0
  4  5  2  0
  4  6  1  0
  6  7  1  0
  7  8  1  0
  8  9  1  0
  9  7  1  0
  2 10  1  0
  3 11  1  0
  3 12  1  0
  6 13  1  0
  6 14  1  0
  7 15  1  0
  8 16  1  0
  8 17  1  0
  9 18  1  0
  9 19  1  0
M  END
