
     RDKit          3D

 17 17  0  0  0  0  0  0  0  0999 V2000
   -0.5533    2.2291   -0.4067 O   0  0  0  0  0  0  0  0  0  0  0  0
   -0.7623    1.3856    0.5977 C   0  0  0  0  0  0  0  0  0  0  0  0
   -0.6366    0.0439    0.0208 C   0  0  0  0  0  0  0  0  0  0  0  0
    0.8065   -0.3559   -0.2296 C   0  0  0  0  0  0  0  0  0  0  0  0
    1.0228   -1.4194   -0.7067 O   0  0  0  0  0  0  0  0  0  0  0  0
    1.8616    0.6358    0.1212 C   0  0  0  0  0  0  0  0  0  0  0  0
    3.1165    0.2285   -0.2902 O   0  0  0  0  0  0  0  0  0  0  0  0
   -1.7716   -0.5458   -0.7200 C   0  0  0  0  0  0  0  0  0  0  0  0
   -1.3847   -1.1282    0.6287 C   0  0  0  0  0  0  0  0  0  0  0  0
   -0.9683    1.8054    1.4257 H   0  0  0  0  0  0  0  0  0  0  0  0
    1.5852    1.5944   -0.3104 H   0  0  0  0  0  0  0  0  0  0  0  0
    1.8628    0.7712    1.2440 H   0  0  0  0  0  0  0  0  0  0  0  0
    3.1680   -0.7544   -0.2601 H   0  0  0  0  0  0  0  0  0  0  0  0
   -2.7891   -0.1294   -0.7293 H   0  0  0  0  0  0  0  0  0  0  0  0
   -1.5734   -1.1810   -1.6155 H   0  0  0  0  0  0  0  0  0  0  0  0
   -0.8664   -2.1051    0.5418 H   0  0  0  0  0  0  0  0  0  0  0  0
   -2.1178   -1.0747    1.4387 H   0  0  0  0  0  0  0  0  0  0  0  0
  1  2  2  0
  2  3  1  0
  3  4  1  0
  4  5  2  0
  4  6  1  0
  6  7  1  0
  3  8  1  0
  8  9  1  0
  9  3  1  0
  2 10  1  0
  6 11  1  0
  6 12  1  0
  7 13  1  0
  8 14  1  0
  8 15  1  0
  9 16  1  0
  9 17  1  0
M  END
