
     RDKit          3D

 18 18  0  0  0  0  0  0  0  0999 V2000
   -0.1412    2.5942    0.2119 O   0  0  0  0  0  0  0  0  0  0  0  0
    0.6038    1.7237   -0.1958 C   0  0  0  0  0  0  0  0  0  0  0  0
    0.2039    0.3223   -0.1325 C   0  0  0  0  0  0  0  0  0  0  0  0
    1.3227   -0.6533   -0.4096 C   0  0  0  0  0  0  0  0  0  0  0  0
    2.3088   -0.4320    0.5551 O   0  0  0  0  0  0  0  0  0  0  0  0
   -1.0546    0.0564   -0.9649 C   0  0  0  0  0  0  0  0  0  0  0  0
   -1.4478   -0.9365    0.0995 C   0  0  0  0  0  0  0  0  0  0  0  0
   -0.6249   -0.0878    1.0703 C   0  0  0  0  0  0  0  0  0  0  0  0
    1.5695    1.9736   -0.6097 H   0  0  0  0  0  0  0  0  0  0  0  0
    0.9830   -1.6969   -0.2733 H   0  0  0  0  0  0  0  0  0  0  0  0
    1.7090   -0.5655   -1.4432 H   0  0  0  0  0  0  0  0  0  0  0  0
    1.9238   -0.0661    1.3764 H   0  0  0  0  0  0  0  0  0  0  0  0
   -0.8609   -0.3377   -1.9601 H   0  0  0  0  0  0  0  0  0  0  0  0
   -1.6933    0.9795   -0.9110 H   0  0  0  0  0  0  0  0  0  0  0  0
   -1.0390   -1.9405   -0.0933 H   0  0  0  0  0  0  0  0  0  0  0  0
   -2.5176   -0.9659    0.3657 H   0  0  0  0  0  0  0  0  0  0  0  0
   -1.2242    0.7020    1.5300 H   0  0  0  0  0  0  0  0  0  0  0  0
   -0.0210   -0.6694    1.7846 H   0  0  0  0  0  0  0  0  0  0  0  0
  1  2  2  0
  2  3  1  0
  3  4  1  0
  4  5  1  0
  3  6  1  0
  6  7  1  0
  7  8  1  0
  8  3  1  0
  2  9  1  0
  4 10  1  0
  4 11  1  0
  5 12  1  0
  6 13  1  0
  6 14  1  0
  7 15  1  0
  7 16  1  0
  8 17  1  0
  8 18  1  0
M  END
