
     RDKit          3D

 17 18  0  0  0  0  0  0  0  0999 V2000
    2.1950   -1.3946   -0.6162 O   0  0  0  0  0  0  0  0  0  0  0  0
    2.0876   -0.2265   -0.2920 C   0  0  0  0  0  0  0  0  0  0  0  0
    1.0824    0.1272    0.7075 C   0  0  0  0  0  0  0  0  0  0  0  0
    0.3503   -0.9531    1.1784 O   0  0  0  0  0  0  0  0  0  0  0  0
   -0.5301   -1.2891    0.1616 C   0  0  0  0  0  0  0  0  0  0  0  0
   -1.9167   -0.7846    0.3287 C   0  0  0  0  0  0  0  0  0  0  0  0
   -0.9843    0.0113   -0.4724 C   0  0  0  0  0  0  0  0  0  0  0  0
   -0.0310    0.9993    0.1204 C   0  0  0  0  0  0  0  0  0  0  0  0
    0.4825    1.8527   -0.8653 O   0  0  0  0  0  0  0  0  0  0  0  0
    2.7301    0.5140   -0.7450 H   0  0  0  0  0  0  0  0  0  0  0  0
    1.5366    0.6894    1.5520 H   0  0  0  0  0  0  0  0  0  0  0  0
   -0.2990   -2.0732   -0.5584 H   0  0  0  0  0  0  0  0  0  0  0  0
   -2.2408   -0.3866    1.3071 H   0  0  0  0  0  0  0  0  0  0  0  0
   -2.7048   -1.3253   -0.2081 H   0  0  0  0  0  0  0  0  0  0  0  0
   -1.1333    0.0526   -1.5633 H   0  0  0  0  0  0  0  0  0  0  0  0
   -0.4806    1.5972    0.9239 H   0  0  0  0  0  0  0  0  0  0  0  0
   -0.1439    2.5892   -0.9590 H   0  0  0  0  0  0  0  0  0  0  0  0
  1  2  2  0
  2  3  1  0
  3  4  1  0
  4  5  1  0
  5  6  1  0
  6  7  1  0
  7  8  1  0
  8  9  1  0
  8  3  1  0
  7  5  1  0
  2 10  1  0
  3 11  1  0
  5 12  1  0
  6 13  1  0
  6 14  1  0
  7 15  1  0
  8 16  1  0
  9 17  1  0
M  END
