
     RDKit          3D

 16 17  0  0  0  0  0  0  0  0999 V2000
    3.3673   -0.9219   -0.4724 O   0  0  0  0  0  0  0  0  0  0  0  0
    2.4752   -0.1106   -0.2944 C   0  0  0  0  0  0  0  0  0  0  0  0
    1.0403   -0.4687   -0.1604 C   0  0  0  0  0  0  0  0  0  0  0  0
    0.2623    0.2507    0.8642 C   0  0  0  0  0  0  0  0  0  0  0  0
   -0.9900   -0.4125    1.2960 C   0  0  0  0  0  0  0  0  0  0  0  0
   -1.9118   -0.4056    0.3514 C   0  0  0  0  0  0  0  0  0  0  0  0
   -1.3805    0.2674   -0.8292 C   0  0  0  0  0  0  0  0  0  0  0  0
    0.0602    0.5173   -0.6439 C   0  0  0  0  0  0  0  0  0  0  0  0
    2.7482    0.9214   -0.2317 H   0  0  0  0  0  0  0  0  0  0  0  0
    0.8656   -1.5656   -0.2405 H   0  0  0  0  0  0  0  0  0  0  0  0
    0.6278    1.1200    1.4049 H   0  0  0  0  0  0  0  0  0  0  0  0
   -1.1419   -0.8519    2.2634 H   0  0  0  0  0  0  0  0  0  0  0  0
   -2.9322   -0.8304    0.4069 H   0  0  0  0  0  0  0  0  0  0  0  0
   -1.6451   -0.2497   -1.7796 H   0  0  0  0  0  0  0  0  0  0  0  0
   -1.8987    1.2723   -0.8841 H   0  0  0  0  0  0  0  0  0  0  0  0
    0.4534    1.4680   -1.0505 H   0  0  0  0  0  0  0  0  0  0  0  0
  1  2  2  0
  2  3  1  0
  3  4  1  0
  4  5  1  0
  5  6  2  0
  6  7  1  0
  7  8  1  0
  8  3  1  0
  8  4  1  0
  2  9  1  0
  3 10  1  0
  4 11  1  0
  5 12  1  0
  6 13  1  0
  7 14  1  0
  7 15  1  0
  8 16  1  0
M  END
