
     RDKit          3D

 17 17  0  0  0  0  0  0  0  0999 V2000
    4.6088    1.0906    1.1954 O   0  0  0  0  0  0  0  0  0  0  0  0
    4.0880    0.5341    0.1954 C   0  0  0  0  0  0  0  0  0  0  0  0
    2.6798    0.2631    0.1418 C   0  0  0  0  0  0  0  0  0  0  0  0
    1.4820    0.0470    0.0995 C   0  0  0  0  0  0  0  0  0  0  0  0
    0.0591   -0.1850    0.0462 C   0  0  0  0  0  0  0  0  0  0  0  0
   -0.6749   -0.9759    0.8061 C   0  0  0  0  0  0  0  0  0  0  0  0
   -2.1030   -0.9166    0.4100 C   0  0  0  0  0  0  0  0  0  0  0  0
   -2.1510    0.4723   -0.2432 C   0  0  0  0  0  0  0  0  0  0  0  0
   -0.8156    0.4911   -0.9484 C   0  0  0  0  0  0  0  0  0  0  0  0
    4.7612    0.2734   -0.6173 H   0  0  0  0  0  0  0  0  0  0  0  0
   -0.2754   -1.5785    1.6042 H   0  0  0  0  0  0  0  0  0  0  0  0
   -2.7945   -0.9588    1.2731 H   0  0  0  0  0  0  0  0  0  0  0  0
   -2.3710   -1.6587   -0.3509 H   0  0  0  0  0  0  0  0  0  0  0  0
   -3.0092    0.5618   -0.9301 H   0  0  0  0  0  0  0  0  0  0  0  0
   -2.1557    1.1934    0.5879 H   0  0  0  0  0  0  0  0  0  0  0  0
   -0.4714    1.5117   -1.1822 H   0  0  0  0  0  0  0  0  0  0  0  0
   -0.8572   -0.1651   -1.8462 H   0  0  0  0  0  0  0  0  0  0  0  0
  1  2  2  0
  2  3  1  0
  3  4  3  0
  4  5  1  0
  5  6  2  0
  6  7  1  0
  7  8  1  0
  8  9  1  0
  9  5  1  0
  2 10  1  0
  6 11  1  0
  7 12  1  0
  7 13  1  0
  8 14  1  0
  8 15  1  0
  9 16  1  0
  9 17  1  0
M  END
