
     RDKit          3D

 17 18  0  0  0  0  0  0  0  0999 V2000
    3.3924    0.4187    0.6711 O   0  0  0  0  0  0  0  0  0  0  0  0
    2.7280   -0.0210   -0.2914 C   0  0  0  0  0  0  0  0  0  0  0  0
    1.2598   -0.2023   -0.1417 C   0  0  0  0  0  0  0  0  0  0  0  0
    0.4604   -0.6579   -1.0880 C   0  0  0  0  0  0  0  0  0  0  0  0
   -0.9354   -0.7231   -0.6367 C   0  0  0  0  0  0  0  0  0  0  0  0
   -1.5950    0.5373   -0.2386 C   0  0  0  0  0  0  0  0  0  0  0  0
   -2.9646    0.5949   -0.0710 O   0  0  0  0  0  0  0  0  0  0  0  0
   -0.8832   -0.3505    0.7801 C   0  0  0  0  0  0  0  0  0  0  0  0
    0.5047    0.1066    1.0914 C   0  0  0  0  0  0  0  0  0  0  0  0
    3.2575   -0.2515   -1.1975 H   0  0  0  0  0  0  0  0  0  0  0  0
    0.8202   -0.9468   -2.0848 H   0  0  0  0  0  0  0  0  0  0  0  0
   -1.5991   -1.5183   -1.0250 H   0  0  0  0  0  0  0  0  0  0  0  0
   -1.1112    1.4672   -0.5707 H   0  0  0  0  0  0  0  0  0  0  0  0
   -3.2339    1.5413    0.0446 H   0  0  0  0  0  0  0  0  0  0  0  0
   -1.4991   -0.8575    1.5501 H   0  0  0  0  0  0  0  0  0  0  0  0
    0.4565    1.2271    1.2191 H   0  0  0  0  0  0  0  0  0  0  0  0
    0.9420   -0.3642    1.9889 H   0  0  0  0  0  0  0  0  0  0  0  0
  1  2  2  0
  2  3  1  0
  3  4  2  0
  4  5  1  0
  5  6  1  0
  6  7  1  0
  6  8  1  0
  8  9  1  0
  9  3  1  0
  8  5  1  0
  2 10  1  0
  4 11  1  0
  5 12  1  0
  6 13  1  0
  7 14  1  0
  8 15  1  0
  9 16  1  0
  9 17  1  0
M  END
