
     RDKit          3D

 15 16  0  0  0  0  0  0  0  0999 V2000
    2.9818    0.6862    0.0372 O   0  0  0  0  0  0  0  0  0  0  0  0
    2.1774   -0.0681    0.5353 C   0  0  0  0  0  0  0  0  0  0  0  0
    0.7961    0.3497    0.8596 C   0  0  0  0  0  0  0  0  0  0  0  0
   -0.0066    0.3145   -0.4068 C   0  0  0  0  0  0  0  0  0  0  0  0
   -1.4400    0.7006   -0.3210 C   0  0  0  0  0  0  0  0  0  0  0  0
   -1.6054   -0.0962   -1.4706 O   0  0  0  0  0  0  0  0  0  0  0  0
   -0.8213   -0.9089   -0.6618 C   0  0  0  0  0  0  0  0  0  0  0  0
   -1.6798   -0.5083    0.4226 C   0  0  0  0  0  0  0  0  0  0  0  0
   -2.2545   -0.9103    1.3720 O   0  0  0  0  0  0  0  0  0  0  0  0
    2.4842   -1.0756    0.7467 H   0  0  0  0  0  0  0  0  0  0  0  0
    0.7795    1.3734    1.3250 H   0  0  0  0  0  0  0  0  0  0  0  0
    0.3823   -0.3536    1.6078 H   0  0  0  0  0  0  0  0  0  0  0  0
    0.5140    0.7020   -1.2972 H   0  0  0  0  0  0  0  0  0  0  0  0
   -1.8310    1.6217   -0.2153 H   0  0  0  0  0  0  0  0  0  0  0  0
   -0.4768   -1.8269   -0.9076 H   0  0  0  0  0  0  0  0  0  0  0  0
  1  2  2  0
  2  3  1  0
  3  4  1  0
  4  5  1  0
  5  6  1  0
  6  7  1  0
  7  8  1  0
  8  9  2  0
  7  4  1  0
  8  5  1  0
  2 10  1  0
  3 11  1  0
  3 12  1  0
  4 13  1  0
  5 14  1  0
  7 15  1  0
M  END
