
     RDKit          3D

 17 18  0  0  0  0  0  0  0  0999 V2000
    2.9610    0.9044    0.3425 O   0  0  0  0  0  0  0  0  0  0  0  0
    2.5820   -0.2511    0.3656 C   0  0  0  0  0  0  0  0  0  0  0  0
    1.3664   -0.6171   -0.3898 C   0  0  0  0  0  0  0  0  0  0  0  0
    0.8753    0.5183   -1.0137 O   0  0  0  0  0  0  0  0  0  0  0  0
   -0.4883    0.5393   -0.8713 C   0  0  0  0  0  0  0  0  0  0  0  0
   -1.0186    1.1984    0.3824 C   0  0  0  0  0  0  0  0  0  0  0  0
   -1.7988   -0.0983    0.6424 C   0  0  0  0  0  0  0  0  0  0  0  0
   -0.7775   -0.7963   -0.2187 C   0  0  0  0  0  0  0  0  0  0  0  0
    0.3661   -1.0555    0.4841 O   0  0  0  0  0  0  0  0  0  0  0  0
    3.1318   -1.0137    0.9376 H   0  0  0  0  0  0  0  0  0  0  0  0
    1.5344   -1.4543   -1.0980 H   0  0  0  0  0  0  0  0  0  0  0  0
   -1.0953    0.7900   -1.7487 H   0  0  0  0  0  0  0  0  0  0  0  0
   -0.2039    1.3707    1.0971 H   0  0  0  0  0  0  0  0  0  0  0  0
   -1.7056    2.0242    0.1769 H   0  0  0  0  0  0  0  0  0  0  0  0
   -1.8120   -0.4194    1.6879 H   0  0  0  0  0  0  0  0  0  0  0  0
   -2.7800   -0.1211    0.1628 H   0  0  0  0  0  0  0  0  0  0  0  0
   -1.1371   -1.5186   -0.9389 H   0  0  0  0  0  0  0  0  0  0  0  0
  1  2  2  0
  2  3  1  0
  3  4  1  0
  4  5  1  0
  5  6  1  0
  6  7  1  0
  7  8  1  0
  8  9  1  0
  9  3  1  0
  8  5  1  0
  2 10  1  0
  3 11  1  0
  5 12  1  0
  6 13  1  0
  6 14  1  0
  7 15  1  0
  7 16  1  0
  8 17  1  0
M  END
