
     RDKit          3D

 19 20  0  0  0  0  0  0  0  0999 V2000
    1.5611    2.5171   -0.1246 O   0  0  0  0  0  0  0  0  0  0  0  0
    0.4880    1.9452   -0.0898 C   0  0  0  0  0  0  0  0  0  0  0  0
    0.3780    0.6299   -0.7698 C   0  0  0  0  0  0  0  0  0  0  0  0
    1.4675   -0.3211   -0.2547 C   0  0  0  0  0  0  0  0  0  0  0  0
    2.4848   -0.5445   -1.1447 O   0  0  0  0  0  0  0  0  0  0  0  0
    0.3823   -1.4006   -0.2266 C   0  0  0  0  0  0  0  0  0  0  0  0
   -0.6212   -0.3192   -0.2486 C   0  0  0  0  0  0  0  0  0  0  0  0
   -1.5489    0.0515    0.7793 C   0  0  0  0  0  0  0  0  0  0  0  0
   -2.0063   -0.4413   -0.6196 C   0  0  0  0  0  0  0  0  0  0  0  0
   -0.3170    2.4376    0.4374 H   0  0  0  0  0  0  0  0  0  0  0  0
    0.3645    0.6731   -1.8779 H   0  0  0  0  0  0  0  0  0  0  0  0
    1.7386   -0.0770    0.7838 H   0  0  0  0  0  0  0  0  0  0  0  0
    3.3468   -0.4726   -0.6645 H   0  0  0  0  0  0  0  0  0  0  0  0
    0.4228   -2.0857    0.6127 H   0  0  0  0  0  0  0  0  0  0  0  0
    0.4189   -1.9419   -1.2036 H   0  0  0  0  0  0  0  0  0  0  0  0
   -1.7908    1.1227    0.9458 H   0  0  0  0  0  0  0  0  0  0  0  0
   -1.8599   -0.5837    1.6324 H   0  0  0  0  0  0  0  0  0  0  0  0
   -2.4552    0.2787   -1.2962 H   0  0  0  0  0  0  0  0  0  0  0  0
   -2.4539   -1.4682   -0.6215 H   0  0  0  0  0  0  0  0  0  0  0  0
  1  2  2  0
  2  3  1  0
  3  4  1  0
  4  5  1  0
  4  6  1  0
  6  7  1  0
  7  8  1  0
  8  9  1  0
  7  3  1  0
  9  7  1  0
  2 10  1  0
  3 11  1  0
  4 12  1  0
  5 13  1  0
  6 14  1  0
  6 15  1  0
  8 16  1  0
  8 17  1  0
  9 18  1  0
  9 19  1  0
M  END
