
     RDKit          3D

 19 19  0  0  0  0  0  0  0  0999 V2000
   -2.6216    1.3550    0.6598 O   0  0  0  0  0  0  0  0  0  0  0  0
   -2.2797    0.2151    0.5050 C   0  0  0  0  0  0  0  0  0  0  0  0
   -1.3286   -0.2134   -0.5787 C   0  0  0  0  0  0  0  0  0  0  0  0
   -0.9822    0.9416   -1.2858 O   0  0  0  0  0  0  0  0  0  0  0  0
   -0.1368   -0.8135    0.1112 C   0  0  0  0  0  0  0  0  0  0  0  0
    0.5185    0.2085    1.0186 C   0  0  0  0  0  0  0  0  0  0  0  0
    1.7799    0.0411    0.2176 C   0  0  0  0  0  0  0  0  0  0  0  0
    2.1645    1.1610   -0.5256 O   0  0  0  0  0  0  0  0  0  0  0  0
    1.1068   -0.9573   -0.6894 C   0  0  0  0  0  0  0  0  0  0  0  0
   -2.6357   -0.6043    1.1442 H   0  0  0  0  0  0  0  0  0  0  0  0
   -1.8683   -0.9175   -1.2276 H   0  0  0  0  0  0  0  0  0  0  0  0
   -1.8234    1.4385   -1.4760 H   0  0  0  0  0  0  0  0  0  0  0  0
   -0.4112   -1.7577    0.6126 H   0  0  0  0  0  0  0  0  0  0  0  0
    0.0725    1.2378    0.9409 H   0  0  0  0  0  0  0  0  0  0  0  0
    0.5485   -0.1664    2.0612 H   0  0  0  0  0  0  0  0  0  0  0  0
    2.5910   -0.3811    0.8671 H   0  0  0  0  0  0  0  0  0  0  0  0
    2.6383    1.8323   -0.0061 H   0  0  0  0  0  0  0  0  0  0  0  0
    1.0353   -0.6822   -1.7471 H   0  0  0  0  0  0  0  0  0  0  0  0
    1.6321   -1.9377   -0.6019 H   0  0  0  0  0  0  0  0  0  0  0  0
  1  2  2  0
  2  3  1  0
  3  4  1  0
  3  5  1  0
  5  6  1  0
  6  7  1  0
  7  8  1  0
  7  9  1  0
  9  5  1  0
  2 10  1  0
  3 11  1  0
  4 12  1  0
  5 13  1  0
  6 14  1  0
  6 15  1  0
  7 16  1  0
  8 17  1  0
  9 18  1  0
  9 19  1  0
M  END
