
     RDKit          3D

 18 17  0  0  0  0  0  0  0  0999 V2000
    3.1750    1.4652    0.1472 O   0  0  0  0  0  0  0  0  0  0  0  0
    2.8517    0.2973    0.2012 C   0  0  0  0  0  0  0  0  0  0  0  0
    1.5379   -0.0845    0.6930 C   0  0  0  0  0  0  0  0  0  0  0  0
    0.4237    0.1383   -0.3192 C   0  0  0  0  0  0  0  0  0  0  0  0
   -0.8455   -0.3098    0.3631 C   0  0  0  0  0  0  0  0  0  0  0  0
   -0.7109   -1.6420    0.6930 O   0  0  0  0  0  0  0  0  0  0  0  0
   -2.0757   -0.0281   -0.4576 C   0  0  0  0  0  0  0  0  0  0  0  0
   -2.1478    1.3293   -0.7532 O   0  0  0  0  0  0  0  0  0  0  0  0
    3.5632   -0.4443   -0.1244 H   0  0  0  0  0  0  0  0  0  0  0  0
    1.4651   -1.1509    1.0088 H   0  0  0  0  0  0  0  0  0  0  0  0
    1.3014    0.5146    1.6086 H   0  0  0  0  0  0  0  0  0  0  0  0
    0.6035   -0.5542   -1.1801 H   0  0  0  0  0  0  0  0  0  0  0  0
    0.3900    1.1523   -0.7099 H   0  0  0  0  0  0  0  0  0  0  0  0
   -0.9370    0.2645    1.3082 H   0  0  0  0  0  0  0  0  0  0  0  0
   -1.2070   -1.8056    1.5350 H   0  0  0  0  0  0  0  0  0  0  0  0
   -2.1173   -0.6575   -1.3762 H   0  0  0  0  0  0  0  0  0  0  0  0
   -2.9521   -0.2757    0.1784 H   0  0  0  0  0  0  0  0  0  0  0  0
   -2.3183    1.7909    0.1173 H   0  0  0  0  0  0  0  0  0  0  0  0
  1  2  2  0
  2  3  1  0
  3  4  1  0
  4  5  1  0
  5  6  1  0
  5  7  1  0
  7  8  1  0
  2  9  1  0
  3 10  1  0
  3 11  1  0
  4 12  1  0
  4 13  1  0
  5 14  1  0
  6 15  1  0
  7 16  1  0
  7 17  1  0
  8 18  1  0
M  END
