
     RDKit          3D

 15 16  0  0  0  0  0  0  0  0999 V2000
    3.4188    2.4388   -1.0755 O   0  0  0  0  0  0  0  0  0  0  0  0
    2.8787    1.7155   -0.1859 C   0  0  0  0  0  0  0  0  0  0  0  0
    1.5774    1.1425   -0.3204 C   0  0  0  0  0  0  0  0  0  0  0  0
    0.5231    0.6670   -0.4436 C   0  0  0  0  0  0  0  0  0  0  0  0
   -0.8536    0.0293   -0.5833 C   0  0  0  0  0  0  0  0  0  0  0  0
   -1.4861    0.0246    0.8106 C   0  0  0  0  0  0  0  0  0  0  0  0
   -1.4060   -1.4694    0.8515 C   0  0  0  0  0  0  0  0  0  0  0  0
   -1.9064   -2.1663   -0.2568 O   0  0  0  0  0  0  0  0  0  0  0  0
   -0.7715   -1.4208   -0.5445 C   0  0  0  0  0  0  0  0  0  0  0  0
    3.5034    1.5712    0.6967 H   0  0  0  0  0  0  0  0  0  0  0  0
   -1.4800    0.5094   -1.3132 H   0  0  0  0  0  0  0  0  0  0  0  0
   -2.5014    0.4599    0.8415 H   0  0  0  0  0  0  0  0  0  0  0  0
   -0.8195    0.4616    1.5816 H   0  0  0  0  0  0  0  0  0  0  0  0
   -0.8919   -2.0032    1.6390 H   0  0  0  0  0  0  0  0  0  0  0  0
    0.2149   -1.9601   -0.5865 H   0  0  0  0  0  0  0  0  0  0  0  0
  1  2  2  0
  2  3  1  0
  3  4  3  0
  4  5  1  0
  5  6  1  0
  6  7  1  0
  7  8  1  0
  8  9  1  0
  9  5  1  0
  9  7  1  0
  2 10  1  0
  5 11  1  0
  6 12  1  0
  6 13  1  0
  7 14  1  0
  9 15  1  0
M  END
