
     RDKit          3D

 19 20  0  0  0  0  0  0  0  0999 V2000
    1.7109    1.6826    1.0836 O   0  0  0  0  0  0  0  0  0  0  0  0
    1.8311    1.3145   -0.0581 C   0  0  0  0  0  0  0  0  0  0  0  0
    1.2220    0.0536   -0.5017 C   0  0  0  0  0  0  0  0  0  0  0  0
    1.5522   -1.1135    0.4407 C   0  0  0  0  0  0  0  0  0  0  0  0
    0.4283   -0.7813    1.2309 O   0  0  0  0  0  0  0  0  0  0  0  0
   -0.0988   -0.1813    0.1309 C   0  0  0  0  0  0  0  0  0  0  0  0
   -1.0232    0.9633    0.3038 C   0  0  0  0  0  0  0  0  0  0  0  0
   -2.1572   -0.0633    0.1574 C   0  0  0  0  0  0  0  0  0  0  0  0
   -1.1434   -0.8917   -0.6474 C   0  0  0  0  0  0  0  0  0  0  0  0
    2.3858    1.9125   -0.7507 H   0  0  0  0  0  0  0  0  0  0  0  0
    1.3224   -0.2026   -1.5623 H   0  0  0  0  0  0  0  0  0  0  0  0
    2.4790   -0.9593    1.0054 H   0  0  0  0  0  0  0  0  0  0  0  0
    1.4188   -2.0985   -0.0357 H   0  0  0  0  0  0  0  0  0  0  0  0
   -1.0242    1.4971    1.2573 H   0  0  0  0  0  0  0  0  0  0  0  0
   -1.0551    1.6127   -0.6171 H   0  0  0  0  0  0  0  0  0  0  0  0
   -2.3357   -0.4949    1.1665 H   0  0  0  0  0  0  0  0  0  0  0  0
   -3.0214    0.2789   -0.4006 H   0  0  0  0  0  0  0  0  0  0  0  0
   -1.2900   -1.9575   -0.4885 H   0  0  0  0  0  0  0  0  0  0  0  0
   -1.2014   -0.5713   -1.7146 H   0  0  0  0  0  0  0  0  0  0  0  0
  1  2  2  0
  2  3  1  0
  3  4  1  0
  4  5  1  0
  5  6  1  0
  6  7  1  0
  7  8  1  0
  8  9  1  0
  6  3  1  0
  9  6  1  0
  2 10  1  0
  3 11  1  0
  4 12  1  0
  4 13  1  0
  7 14  1  0
  7 15  1  0
  8 16  1  0
  8 17  1  0
  9 18  1  0
  9 19  1  0
M  END
