
     RDKit          3D

 19 20  0  0  0  0  0  0  0  0999 V2000
    3.1054   -0.5269    0.2735 O   0  0  0  0  0  0  0  0  0  0  0  0
    2.0476   -0.5595   -0.3318 C   0  0  0  0  0  0  0  0  0  0  0  0
    0.8461   -0.0604    0.3620 C   0  0  0  0  0  0  0  0  0  0  0  0
    1.1308    0.3839    1.6478 O   0  0  0  0  0  0  0  0  0  0  0  0
    0.2259    1.1416   -0.3792 C   0  0  0  0  0  0  0  0  0  0  0  0
   -1.1900    0.6518   -0.4456 C   0  0  0  0  0  0  0  0  0  0  0  0
   -1.4222   -0.0657    0.8892 C   0  0  0  0  0  0  0  0  0  0  0  0
   -0.3110   -0.9849    0.3544 C   0  0  0  0  0  0  0  0  0  0  0  0
   -0.9797   -0.7475   -1.0073 C   0  0  0  0  0  0  0  0  0  0  0  0
    2.0553   -0.9470   -1.3266 H   0  0  0  0  0  0  0  0  0  0  0  0
    1.4265    1.3303    1.5959 H   0  0  0  0  0  0  0  0  0  0  0  0
    0.3696    2.0706    0.1664 H   0  0  0  0  0  0  0  0  0  0  0  0
    0.6910    1.1317   -1.3964 H   0  0  0  0  0  0  0  0  0  0  0  0
   -1.9624    1.2516   -0.8338 H   0  0  0  0  0  0  0  0  0  0  0  0
   -2.3735   -0.5964    0.9121 H   0  0  0  0  0  0  0  0  0  0  0  0
   -1.1343    0.5075    1.7705 H   0  0  0  0  0  0  0  0  0  0  0  0
   -0.2650   -1.9707    0.7232 H   0  0  0  0  0  0  0  0  0  0  0  0
   -1.9530   -1.2512   -1.1145 H   0  0  0  0  0  0  0  0  0  0  0  0
   -0.3069   -0.7589   -1.8598 H   0  0  0  0  0  0  0  0  0  0  0  0
  1  2  2  0
  2  3  1  0
  3  4  1  0
  3  5  1  0
  5  6  1  0
  6  7  1  0
  7  8  1  0
  8  9  1  0
  8  3  1  0
  9  6  1  0
  2 10  1  0
  4 11  1  0
  5 12  1  0
  5 13  1  0
  6 14  1  0
  7 15  1  0
  7 16  1  0
  8 17  1  0
  9 18  1  0
  9 19  1  0
M  END
