
     RDKit          3D

 14 15  0  0  0  0  0  0  0  0999 V2000
    0.7419    1.9006    0.0145 O   0  0  0  0  0  0  0  0  0  0  0  0
    1.5620    1.0422   -0.1906 C   0  0  0  0  0  0  0  0  0  0  0  0
    1.1742   -0.3599   -0.3858 C   0  0  0  0  0  0  0  0  0  0  0  0
   -0.1785   -0.7799   -0.7704 C   0  0  0  0  0  0  0  0  0  0  0  0
   -1.2212    0.1144   -0.9261 O   0  0  0  0  0  0  0  0  0  0  0  0
   -1.6598    0.4711    0.3257 C   0  0  0  0  0  0  0  0  0  0  0  0
   -0.6629    0.1865    1.2331 O   0  0  0  0  0  0  0  0  0  0  0  0
    0.1082   -0.8134    0.6606 C   0  0  0  0  0  0  0  0  0  0  0  0
    2.5969    1.3165   -0.2300 H   0  0  0  0  0  0  0  0  0  0  0  0
    1.9847   -1.0922   -0.5697 H   0  0  0  0  0  0  0  0  0  0  0  0
   -0.2868   -1.7031   -1.3557 H   0  0  0  0  0  0  0  0  0  0  0  0
   -1.9714    1.5265    0.3165 H   0  0  0  0  0  0  0  0  0  0  0  0
   -2.5689   -0.1071    0.6538 H   0  0  0  0  0  0  0  0  0  0  0  0
    0.3814   -1.7022    1.2243 H   0  0  0  0  0  0  0  0  0  0  0  0
  1  2  2  0
  2  3  1  0
  3  4  1  0
  4  5  1  0
  5  6  1  0
  6  7  1  0
  7  8  1  0
  8  3  1  0
  8  4  1  0
  2  9  1  0
  3 10  1  0
  4 11  1  0
  6 12  1  0
  6 13  1  0
  8 14  1  0
M  END
