
     RDKit          3D

 17 18  0  0  0  0  0  0  0  0999 V2000
    4.5813   -0.1437   -0.6515 O   0  0  0  0  0  0  0  0  0  0  0  0
    3.5895    0.5469   -1.0011 C   0  0  0  0  0  0  0  0  0  0  0  0
    2.2521    0.3311   -0.5219 C   0  0  0  0  0  0  0  0  0  0  0  0
    1.1328    0.1668   -0.1076 C   0  0  0  0  0  0  0  0  0  0  0  0
   -0.2341   -0.0378    0.3876 C   0  0  0  0  0  0  0  0  0  0  0  0
   -0.8333   -1.3975    0.2936 C   0  0  0  0  0  0  0  0  0  0  0  0
   -2.0933   -0.7836   -0.3071 C   0  0  0  0  0  0  0  0  0  0  0  0
   -1.3132    0.5296   -0.3924 C   0  0  0  0  0  0  0  0  0  0  0  0
   -0.9873    1.1297    0.9195 C   0  0  0  0  0  0  0  0  0  0  0  0
    3.7810    1.3437   -1.7043 H   0  0  0  0  0  0  0  0  0  0  0  0
   -0.2520   -2.0266   -0.4281 H   0  0  0  0  0  0  0  0  0  0  0  0
   -0.9701   -1.8443    1.2948 H   0  0  0  0  0  0  0  0  0  0  0  0
   -2.8974   -0.6719    0.4751 H   0  0  0  0  0  0  0  0  0  0  0  0
   -2.4124   -1.1960   -1.2634 H   0  0  0  0  0  0  0  0  0  0  0  0
   -1.2261    1.0480   -1.3413 H   0  0  0  0  0  0  0  0  0  0  0  0
   -0.4118    2.0609    1.0117 H   0  0  0  0  0  0  0  0  0  0  0  0
   -1.7058    0.9447    1.7448 H   0  0  0  0  0  0  0  0  0  0  0  0
  1  2  2  0
  2  3  1  0
  3  4  3  0
  4  5  1  0
  5  6  1  0
  6  7  1  0
  7  8  1  0
  8  9  1  0
  8  5  1  0
  9  5  1  0
  2 10  1  0
  6 11  1  0
  6 12  1  0
  7 13  1  0
  7 14  1  0
  8 15  1  0
  9 16  1  0
  9 17  1  0
M  END
