
     RDKit          3D

 11 10  0  0  0  0  0  0  0  0999 V2000
    3.2129    1.3263   -0.9398 O   0  0  0  0  0  0  0  0  0  0  0  0
    2.6029    0.2289   -1.0119 C   0  0  0  0  0  0  0  0  0  0  0  0
    1.2028    0.0829   -0.7238 C   0  0  0  0  0  0  0  0  0  0  0  0
    0.0249   -0.0196   -0.4758 C   0  0  0  0  0  0  0  0  0  0  0  0
   -1.4241   -0.1296   -0.1902 C   0  0  0  0  0  0  0  0  0  0  0  0
   -1.6133   -0.1677    1.2843 C   0  0  0  0  0  0  0  0  0  0  0  0
   -0.7253   -0.1167    2.0943 O   0  0  0  0  0  0  0  0  0  0  0  0
    3.1695   -0.6326   -1.3046 H   0  0  0  0  0  0  0  0  0  0  0  0
   -1.9852    0.7207   -0.6324 H   0  0  0  0  0  0  0  0  0  0  0  0
   -1.8363   -1.0450   -0.6868 H   0  0  0  0  0  0  0  0  0  0  0  0
   -2.6288   -0.2476    1.6560 H   0  0  0  0  0  0  0  0  0  0  0  0
  1  2  2  0
  2  3  1  0
  3  4  3  0
  4  5  1  0
  5  6  1  0
  6  7  2  0
  2  8  1  0
  5  9  1  0
  5 10  1  0
  6 11  1  0
M  END
