
     RDKit          3D

 19 18  0  0  0  0  0  0  0  0999 V2000
   -2.9424   -1.1856   -1.0190 O   0  0  0  0  0  0  0  0  0  0  0  0
   -1.8072   -0.8053   -0.8103 C   0  0  0  0  0  0  0  0  0  0  0  0
   -1.4479   -0.2118    0.5079 C   0  0  0  0  0  0  0  0  0  0  0  0
    0.0111    0.1954    0.5400 C   0  0  0  0  0  0  0  0  0  0  0  0
    0.2219    1.2176   -0.5531 C   0  0  0  0  0  0  0  0  0  0  0  0
   -0.5976    2.3220   -0.3212 O   0  0  0  0  0  0  0  0  0  0  0  0
    0.8339   -1.0343    0.3644 C   0  0  0  0  0  0  0  0  0  0  0  0
    2.2934   -0.7887    0.3757 C   0  0  0  0  0  0  0  0  0  0  0  0
    2.8344    0.2689    0.5099 O   0  0  0  0  0  0  0  0  0  0  0  0
   -1.0870   -0.9116   -1.5975 H   0  0  0  0  0  0  0  0  0  0  0  0
   -2.1329    0.6313    0.6773 H   0  0  0  0  0  0  0  0  0  0  0  0
   -1.6611   -0.9778    1.2958 H   0  0  0  0  0  0  0  0  0  0  0  0
    0.2334    0.6770    1.5133 H   0  0  0  0  0  0  0  0  0  0  0  0
   -0.0290    0.8274   -1.5402 H   0  0  0  0  0  0  0  0  0  0  0  0
    1.2619    1.6039   -0.5843 H   0  0  0  0  0  0  0  0  0  0  0  0
   -0.0925    3.1047   -0.0031 H   0  0  0  0  0  0  0  0  0  0  0  0
    0.5673   -1.5462   -0.5872 H   0  0  0  0  0  0  0  0  0  0  0  0
    0.6130   -1.7132    1.2128 H   0  0  0  0  0  0  0  0  0  0  0  0
    2.9270   -1.6737    0.2472 H   0  0  0  0  0  0  0  0  0  0  0  0
  1  2  2  0
  2  3  1  0
  3  4  1  0
  4  5  1  0
  5  6  1  0
  4  7  1  0
  7  8  1  0
  8  9  2  0
  2 10  1  0
  3 11  1  0
  3 12  1  0
  4 13  1  0
  5 14  1  0
  5 15  1  0
  6 16  1  0
  7 17  1  0
  7 18  1  0
  8 19  1  0
M  END
