
     RDKit          3D

 16 16  0  0  0  0  0  0  0  0999 V2000
    2.1980    1.7913   -0.0256 O   0  0  0  0  0  0  0  0  0  0  0  0
    2.2352    0.7290    0.5475 C   0  0  0  0  0  0  0  0  0  0  0  0
    1.2183   -0.2888    0.2736 C   0  0  0  0  0  0  0  0  0  0  0  0
    0.1961    0.1460   -0.7484 C   0  0  0  0  0  0  0  0  0  0  0  0
   -0.7608   -0.9772   -0.9214 C   0  0  0  0  0  0  0  0  0  0  0  0
   -1.8163   -0.7031   -0.1933 C   0  0  0  0  0  0  0  0  0  0  0  0
   -1.5975    0.5898    0.4768 C   0  0  0  0  0  0  0  0  0  0  0  0
   -0.5948    1.1906   -0.2719 O   0  0  0  0  0  0  0  0  0  0  0  0
    3.0145    0.5330    1.2574 H   0  0  0  0  0  0  0  0  0  0  0  0
    1.7379   -1.1920   -0.1594 H   0  0  0  0  0  0  0  0  0  0  0  0
    0.7027   -0.6588    1.1806 H   0  0  0  0  0  0  0  0  0  0  0  0
    0.6477    0.3500   -1.7336 H   0  0  0  0  0  0  0  0  0  0  0  0
   -0.5762   -1.8466   -1.5477 H   0  0  0  0  0  0  0  0  0  0  0  0
   -2.7243   -1.2980   -0.0723 H   0  0  0  0  0  0  0  0  0  0  0  0
   -2.5619    1.1606    0.3957 H   0  0  0  0  0  0  0  0  0  0  0  0
   -1.3186    0.4742    1.5420 H   0  0  0  0  0  0  0  0  0  0  0  0
  1  2  2  0
  2  3  1  0
  3  4  1  0
  4  5  1  0
  5  6  2  0
  6  7  1  0
  7  8  1  0
  8  4  1  0
  2  9  1  0
  3 10  1  0
  3 11  1  0
  4 12  1  0
  5 13  1  0
  6 14  1  0
  7 15  1  0
  7 16  1  0
M  END
