
     RDKit          3D

 17 18  0  0  0  0  0  0  0  0999 V2000
    3.5261    0.3094    0.8162 O   0  0  0  0  0  0  0  0  0  0  0  0
    2.7716    0.5462   -0.1021 C   0  0  0  0  0  0  0  0  0  0  0  0
    1.5891   -0.2738   -0.3063 C   0  0  0  0  0  0  0  0  0  0  0  0
    0.7845    0.1083   -1.4200 O   0  0  0  0  0  0  0  0  0  0  0  0
   -0.2072   -0.5901   -0.7547 C   0  0  0  0  0  0  0  0  0  0  0  0
   -1.5999   -0.0414   -0.7394 C   0  0  0  0  0  0  0  0  0  0  0  0
   -1.9310    0.1055    0.7384 C   0  0  0  0  0  0  0  0  0  0  0  0
   -0.5774    0.4125    1.2937 C   0  0  0  0  0  0  0  0  0  0  0  0
    0.3881    0.0618    0.4862 C   0  0  0  0  0  0  0  0  0  0  0  0
    3.0039    1.3705   -0.7496 H   0  0  0  0  0  0  0  0  0  0  0  0
    1.7263   -1.3695   -0.3666 H   0  0  0  0  0  0  0  0  0  0  0  0
   -0.0861   -1.6683   -0.7918 H   0  0  0  0  0  0  0  0  0  0  0  0
   -2.2677   -0.8289   -1.1442 H   0  0  0  0  0  0  0  0  0  0  0  0
   -1.7575    0.8661   -1.3189 H   0  0  0  0  0  0  0  0  0  0  0  0
   -2.6499    0.9326    0.8992 H   0  0  0  0  0  0  0  0  0  0  0  0
   -2.2845   -0.8171    1.1964 H   0  0  0  0  0  0  0  0  0  0  0  0
   -0.4285    0.8764    2.2636 H   0  0  0  0  0  0  0  0  0  0  0  0
  1  2  2  0
  2  3  1  0
  3  4  1  0
  4  5  1  0
  5  6  1  0
  6  7  1  0
  7  8  1  0
  8  9  2  0
  9  3  1  0
  9  5  1  0
  2 10  1  0
  3 11  1  0
  5 12  1  0
  6 13  1  0
  6 14  1  0
  7 15  1  0
  7 16  1  0
  8 17  1  0
M  END
