
     RDKit          3D

 11 11  0  0  0  0  0  0  0  0999 V2000
   -2.9587   -1.8045   -1.5445 O   0  0  0  0  0  0  0  0  0  0  0  0
   -2.5432   -0.6555   -1.2635 C   0  0  0  0  0  0  0  0  0  0  0  0
   -1.2195   -0.5148   -0.7354 C   0  0  0  0  0  0  0  0  0  0  0  0
   -0.1092   -0.4044   -0.2716 C   0  0  0  0  0  0  0  0  0  0  0  0
    1.2407   -0.2619    0.3189 C   0  0  0  0  0  0  0  0  0  0  0  0
    1.6560    1.0754    0.7668 C   0  0  0  0  0  0  0  0  0  0  0  0
    2.1705    0.4491   -0.4321 O   0  0  0  0  0  0  0  0  0  0  0  0
   -3.2108    0.1722   -1.4361 H   0  0  0  0  0  0  0  0  0  0  0  0
    1.6246   -1.1890    0.7462 H   0  0  0  0  0  0  0  0  0  0  0  0
    2.3671    1.2169    1.5806 H   0  0  0  0  0  0  0  0  0  0  0  0
    0.9825    1.9166    0.4824 H   0  0  0  0  0  0  0  0  0  0  0  0
  1  2  2  0
  2  3  1  0
  3  4  3  0
  4  5  1  0
  5  6  1  0
  6  7  1  0
  7  5  1  0
  2  8  1  0
  5  9  1  0
  6 10  1  0
  6 11  1  0
M  END
