
     RDKit          3D

 19 19  0  0  0  0  0  0  0  0999 V2000
    2.6319   -1.8927   -0.3565 O   0  0  0  0  0  0  0  0  0  0  0  0
    3.0006   -0.7426   -0.4230 C   0  0  0  0  0  0  0  0  0  0  0  0
    1.9918    0.3404   -0.3024 C   0  0  0  0  0  0  0  0  0  0  0  0
    0.7535   -0.2140   -0.1272 O   0  0  0  0  0  0  0  0  0  0  0  0
   -0.2731    0.6872   -0.0017 C   0  0  0  0  0  0  0  0  0  0  0  0
   -1.3994    0.3292   -0.9606 C   0  0  0  0  0  0  0  0  0  0  0  0
   -2.0982   -0.3282    0.2157 C   0  0  0  0  0  0  0  0  0  0  0  0
   -1.9491   -1.7059    0.2898 O   0  0  0  0  0  0  0  0  0  0  0  0
   -1.2111    0.4353    1.1737 C   0  0  0  0  0  0  0  0  0  0  0  0
    4.0594   -0.5494   -0.5687 H   0  0  0  0  0  0  0  0  0  0  0  0
    2.0739    0.9963   -1.1918 H   0  0  0  0  0  0  0  0  0  0  0  0
    2.2768    0.9191    0.6251 H   0  0  0  0  0  0  0  0  0  0  0  0
   -0.0330    1.7523   -0.0495 H   0  0  0  0  0  0  0  0  0  0  0  0
   -1.1210   -0.4156   -1.7406 H   0  0  0  0  0  0  0  0  0  0  0  0
   -1.9440    1.1859   -1.3865 H   0  0  0  0  0  0  0  0  0  0  0  0
   -3.1678   -0.0347    0.2317 H   0  0  0  0  0  0  0  0  0  0  0  0
   -1.1129   -1.9299    0.7738 H   0  0  0  0  0  0  0  0  0  0  0  0
   -0.7859   -0.1644    1.9888 H   0  0  0  0  0  0  0  0  0  0  0  0
   -1.6924    1.3318    1.5594 H   0  0  0  0  0  0  0  0  0  0  0  0
  1  2  2  0
  2  3  1  0
  3  4  1  0
  4  5  1  0
  5  6  1  0
  6  7  1  0
  7  8  1  0
  7  9  1  0
  9  5  1  0
  2 10  1  0
  3 11  1  0
  3 12  1  0
  5 13  1  0
  6 14  1  0
  6 15  1  0
  7 16  1  0
  8 17  1  0
  9 18  1  0
  9 19  1  0
M  END
