
     RDKit          3D

 17 18  0  0  0  0  0  0  0  0999 V2000
    2.8105   -0.6436    0.5917 O   0  0  0  0  0  0  0  0  0  0  0  0
    2.0533   -0.4607   -0.3141 C   0  0  0  0  0  0  0  0  0  0  0  0
    0.6826   -0.0530   -0.1233 C   0  0  0  0  0  0  0  0  0  0  0  0
   -0.2141   -1.0749    0.5316 C   0  0  0  0  0  0  0  0  0  0  0  0
   -1.5955   -0.5007    0.1834 C   0  0  0  0  0  0  0  0  0  0  0  0
   -1.2107    0.5690   -0.8158 C   0  0  0  0  0  0  0  0  0  0  0  0
   -0.7586    1.6764   -0.1120 O   0  0  0  0  0  0  0  0  0  0  0  0
    0.4774    1.3263    0.4315 C   0  0  0  0  0  0  0  0  0  0  0  0
    0.0067    0.0921   -1.3625 O   0  0  0  0  0  0  0  0  0  0  0  0
    2.4329   -0.6139   -1.3262 H   0  0  0  0  0  0  0  0  0  0  0  0
   -0.0842   -2.0320   -0.0448 H   0  0  0  0  0  0  0  0  0  0  0  0
   -0.0664   -1.1853    1.6019 H   0  0  0  0  0  0  0  0  0  0  0  0
   -2.2648   -1.2632   -0.2229 H   0  0  0  0  0  0  0  0  0  0  0  0
   -2.0267    0.0225    1.0580 H   0  0  0  0  0  0  0  0  0  0  0  0
   -1.9566    0.7837   -1.5615 H   0  0  0  0  0  0  0  0  0  0  0  0
    0.4863    1.3679    1.5289 H   0  0  0  0  0  0  0  0  0  0  0  0
    1.2278    1.9894   -0.0440 H   0  0  0  0  0  0  0  0  0  0  0  0
  1  2  2  0
  2  3  1  0
  3  4  1  0
  4  5  1  0
  5  6  1  0
  6  7  1  0
  7  8  1  0
  6  9  1  0
  8  3  1  0
  9  3  1  0
  2 10  1  0
  4 11  1  0
  4 12  1  0
  5 13  1  0
  5 14  1  0
  6 15  1  0
  8 16  1  0
  8 17  1  0
M  END
