
     RDKit          3D

 19 20  0  0  0  0  0  0  0  0999 V2000
    3.0385   -1.0866   -0.2833 O   0  0  0  0  0  0  0  0  0  0  0  0
    2.1891   -0.5037    0.3315 C   0  0  0  0  0  0  0  0  0  0  0  0
    0.7712   -0.7343    0.0588 C   0  0  0  0  0  0  0  0  0  0  0  0
   -0.1259   -0.2764    1.2267 C   0  0  0  0  0  0  0  0  0  0  0  0
   -1.0517    0.6196    0.4773 C   0  0  0  0  0  0  0  0  0  0  0  0
   -0.0521    1.4818   -0.3043 C   0  0  0  0  0  0  0  0  0  0  0  0
    0.2321    0.1635   -1.0113 C   0  0  0  0  0  0  0  0  0  0  0  0
   -1.2744   -0.0821   -0.8658 C   0  0  0  0  0  0  0  0  0  0  0  0
   -1.5258   -1.4238   -0.7917 O   0  0  0  0  0  0  0  0  0  0  0  0
    2.4764    0.2017    1.0975 H   0  0  0  0  0  0  0  0  0  0  0  0
    0.5081   -1.7986   -0.1089 H   0  0  0  0  0  0  0  0  0  0  0  0
   -0.5870   -1.1148    1.7401 H   0  0  0  0  0  0  0  0  0  0  0  0
    0.5379    0.3425    1.8951 H   0  0  0  0  0  0  0  0  0  0  0  0
   -1.8698    1.0974    0.9379 H   0  0  0  0  0  0  0  0  0  0  0  0
   -0.5983    2.2034   -0.9163 H   0  0  0  0  0  0  0  0  0  0  0  0
    0.7842    1.8539    0.3043 H   0  0  0  0  0  0  0  0  0  0  0  0
    0.6444    0.1774   -1.9802 H   0  0  0  0  0  0  0  0  0  0  0  0
   -1.8077    0.5086   -1.6102 H   0  0  0  0  0  0  0  0  0  0  0  0
   -2.2891   -1.6295   -0.1971 H   0  0  0  0  0  0  0  0  0  0  0  0
  1  2  2  0
  2  3  1  0
  3  4  1  0
  4  5  1  0
  5  6  1  0
  6  7  1  0
  7  8  1  0
  8  9  1  0
  7  3  1  0
  8  5  1  0
  2 10  1  0
  3 11  1  0
  4 12  1  0
  4 13  1  0
  5 14  1  0
  6 15  1  0
  6 16  1  0
  7 17  1  0
  8 18  1  0
  9 19  1  0
M  END
