
     RDKit          3D

 15 15  0  0  0  0  0  0  0  0999 V2000
    2.5580   -1.1754   -0.9086 O   0  0  0  0  0  0  0  0  0  0  0  0
    2.2509   -0.1111   -0.4336 C   0  0  0  0  0  0  0  0  0  0  0  0
    0.9717    0.0123    0.2914 C   0  0  0  0  0  0  0  0  0  0  0  0
    0.1780    1.1506   -0.2205 C   0  0  0  0  0  0  0  0  0  0  0  0
   -1.1194    1.0997   -0.4689 C   0  0  0  0  0  0  0  0  0  0  0  0
   -1.7878   -0.1808   -0.2109 C   0  0  0  0  0  0  0  0  0  0  0  0
   -2.9366   -0.4405   -0.6623 O   0  0  0  0  0  0  0  0  0  0  0  0
   -1.0156   -1.1449    0.6175 C   0  0  0  0  0  0  0  0  0  0  0  0
    0.3254   -1.1792    0.2928 O   0  0  0  0  0  0  0  0  0  0  0  0
    2.8884    0.7412   -0.5290 H   0  0  0  0  0  0  0  0  0  0  0  0
    1.2536    0.2992    1.3507 H   0  0  0  0  0  0  0  0  0  0  0  0
    0.6775    2.0916   -0.4085 H   0  0  0  0  0  0  0  0  0  0  0  0
   -1.6894    1.9361   -0.8424 H   0  0  0  0  0  0  0  0  0  0  0  0
   -1.1345   -0.9298    1.6922 H   0  0  0  0  0  0  0  0  0  0  0  0
   -1.4202   -2.1690    0.4401 H   0  0  0  0  0  0  0  0  0  0  0  0
  1  2  2  0
  2  3  1  0
  3  4  1  0
  4  5  2  0
  5  6  1  0
  6  7  2  0
  6  8  1  0
  8  9  1  0
  9  3  1  0
  2 10  1  0
  3 11  1  0
  4 12  1  0
  5 13  1  0
  8 14  1  0
  8 15  1  0
M  END
