
     RDKit          3D

 15 16  0  0  0  0  0  0  0  0999 V2000
    1.5189   -1.0092    1.4203 O   0  0  0  0  0  0  0  0  0  0  0  0
    1.9061   -0.2517    0.5220 C   0  0  0  0  0  0  0  0  0  0  0  0
    0.9652    0.3530   -0.4596 C   0  0  0  0  0  0  0  0  0  0  0  0
    1.5994    1.1755   -1.3896 O   0  0  0  0  0  0  0  0  0  0  0  0
   -0.1564   -0.4563   -1.0051 C   0  0  0  0  0  0  0  0  0  0  0  0
   -0.7084   -1.4947   -0.2733 O   0  0  0  0  0  0  0  0  0  0  0  0
   -1.7805   -0.8270    0.3604 C   0  0  0  0  0  0  0  0  0  0  0  0
   -1.0605    0.2045    1.0082 O   0  0  0  0  0  0  0  0  0  0  0  0
   -0.3832    0.7586   -0.0546 C   0  0  0  0  0  0  0  0  0  0  0  0
    2.9780   -0.0714    0.5154 H   0  0  0  0  0  0  0  0  0  0  0  0
    1.2281    2.0918   -1.4132 H   0  0  0  0  0  0  0  0  0  0  0  0
   -0.5055   -0.2781   -2.0398 H   0  0  0  0  0  0  0  0  0  0  0  0
   -2.3863   -0.3742   -0.4489 H   0  0  0  0  0  0  0  0  0  0  0  0
   -2.3262   -1.4593    1.0508 H   0  0  0  0  0  0  0  0  0  0  0  0
   -0.8887    1.6384   -0.5026 H   0  0  0  0  0  0  0  0  0  0  0  0
  1  2  2  0
  2  3  1  0
  3  4  1  0
  3  5  1  0
  5  6  1  0
  6  7  1  0
  7  8  1  0
  8  9  1  0
  9  3  1  0
  9  5  1  0
  2 10  1  0
  4 11  1  0
  5 12  1  0
  7 13  1  0
  7 14  1  0
  9 15  1  0
M  END
