
     RDKit          3D

 19 20  0  0  0  0  0  0  0  0999 V2000
    2.8982    1.6111    0.4138 O   0  0  0  0  0  0  0  0  0  0  0  0
    1.9405    1.2143   -0.1897 C   0  0  0  0  0  0  0  0  0  0  0  0
    1.2571   -0.0878    0.1149 C   0  0  0  0  0  0  0  0  0  0  0  0
    0.0725   -0.4826   -0.7010 C   0  0  0  0  0  0  0  0  0  0  0  0
   -1.0378    0.5286   -0.5896 C   0  0  0  0  0  0  0  0  0  0  0  0
   -2.3187    0.3226   -1.3318 C   0  0  0  0  0  0  0  0  0  0  0  0
   -2.2731    0.1206    0.1246 C   0  0  0  0  0  0  0  0  0  0  0  0
    2.1971   -1.2211    0.4523 C   0  0  0  0  0  0  0  0  0  0  0  0
    1.4096   -0.5654    1.4030 O   0  0  0  0  0  0  0  0  0  0  0  0
    1.5591    1.8397   -0.9954 H   0  0  0  0  0  0  0  0  0  0  0  0
    0.3974   -0.6400   -1.7644 H   0  0  0  0  0  0  0  0  0  0  0  0
   -0.2945   -1.4527   -0.3318 H   0  0  0  0  0  0  0  0  0  0  0  0
   -0.7051    1.5663   -0.4750 H   0  0  0  0  0  0  0  0  0  0  0  0
   -2.3181   -0.5708   -1.9933 H   0  0  0  0  0  0  0  0  0  0  0  0
   -2.8448    1.1830   -1.7990 H   0  0  0  0  0  0  0  0  0  0  0  0
   -2.4144   -0.9425    0.4642 H   0  0  0  0  0  0  0  0  0  0  0  0
   -2.7139    0.8463    0.8341 H   0  0  0  0  0  0  0  0  0  0  0  0
    3.2926   -1.0080    0.4446 H   0  0  0  0  0  0  0  0  0  0  0  0
    1.8960   -2.2615    0.2620 H   0  0  0  0  0  0  0  0  0  0  0  0
  1  2  2  0
  2  3  1  0
  3  4  1  0
  4  5  1  0
  5  6  1  0
  6  7  1  0
  3  8  1  0
  8  9  1  0
  9  3  1  0
  7  5  1  0
  2 10  1  0
  4 11  1  0
  4 12  1  0
  5 13  1  0
  6 14  1  0
  6 15  1  0
  7 16  1  0
  7 17  1  0
  8 18  1  0
  8 19  1  0
M  END
