
     RDKit          3D

 14 15  0  0  0  0  0  0  0  0999 V2000
   -1.3109    2.2866    0.9813 O   0  0  0  0  0  0  0  0  0  0  0  0
   -0.5787    1.6992    0.1664 C   0  0  0  0  0  0  0  0  0  0  0  0
   -0.3727    0.3596    0.2392 C   0  0  0  0  0  0  0  0  0  0  0  0
   -0.7515   -0.6619   -0.8007 C   0  0  0  0  0  0  0  0  0  0  0  0
   -0.1767   -1.3871    0.3683 C   0  0  0  0  0  0  0  0  0  0  0  0
   -0.9121   -0.5077    1.1736 O   0  0  0  0  0  0  0  0  0  0  0  0
    0.9105   -0.3682    0.4085 C   0  0  0  0  0  0  0  0  0  0  0  0
    1.7230   -0.2561   -0.6863 O   0  0  0  0  0  0  0  0  0  0  0  0
   -0.1492    2.3723   -0.5732 H   0  0  0  0  0  0  0  0  0  0  0  0
   -0.1396   -0.6785   -1.7075 H   0  0  0  0  0  0  0  0  0  0  0  0
   -1.8305   -0.7325   -0.9313 H   0  0  0  0  0  0  0  0  0  0  0  0
   -0.1018   -2.3834    0.5065 H   0  0  0  0  0  0  0  0  0  0  0  0
    1.3843   -0.2813    1.4048 H   0  0  0  0  0  0  0  0  0  0  0  0
    2.3057    0.5391   -0.5497 H   0  0  0  0  0  0  0  0  0  0  0  0
  1  2  2  0
  2  3  1  0
  3  4  1  0
  4  5  1  0
  5  6  1  0
  5  7  1  0
  7  8  1  0
  6  3  1  0
  7  3  1  0
  2  9  1  0
  4 10  1  0
  4 11  1  0
  5 12  1  0
  7 13  1  0
  8 14  1  0
M  END
