
     RDKit          3D

 17 18  0  0  0  0  0  0  0  0999 V2000
   -1.8232    2.3198   -0.7263 O   0  0  0  0  0  0  0  0  0  0  0  0
   -1.0125    1.7924    0.0088 C   0  0  0  0  0  0  0  0  0  0  0  0
   -0.3393    0.5266   -0.3163 C   0  0  0  0  0  0  0  0  0  0  0  0
   -0.9263   -0.4718   -1.2347 C   0  0  0  0  0  0  0  0  0  0  0  0
   -1.0745   -0.7052    0.2009 C   0  0  0  0  0  0  0  0  0  0  0  0
   -0.0772   -1.2633    1.0976 C   0  0  0  0  0  0  0  0  0  0  0  0
    1.1175   -0.7227    1.0332 C   0  0  0  0  0  0  0  0  0  0  0  0
    1.1110    0.3463    0.0230 C   0  0  0  0  0  0  0  0  0  0  0  0
    1.8316   -0.1483   -1.0918 O   0  0  0  0  0  0  0  0  0  0  0  0
   -0.7506    2.2605    0.9677 H   0  0  0  0  0  0  0  0  0  0  0  0
   -0.2018   -1.0652   -1.8590 H   0  0  0  0  0  0  0  0  0  0  0  0
   -1.8173   -0.1718   -1.7906 H   0  0  0  0  0  0  0  0  0  0  0  0
   -2.0833   -0.5700    0.6469 H   0  0  0  0  0  0  0  0  0  0  0  0
   -0.3010   -2.0931    1.7952 H   0  0  0  0  0  0  0  0  0  0  0  0
    2.0004   -1.0309    1.6531 H   0  0  0  0  0  0  0  0  0  0  0  0
    1.5813    1.2896    0.3839 H   0  0  0  0  0  0  0  0  0  0  0  0
    2.7649   -0.2930   -0.7917 H   0  0  0  0  0  0  0  0  0  0  0  0
  1  2  2  0
  2  3  1  0
  3  4  1  0
  4  5  1  0
  5  6  1  0
  6  7  2  0
  7  8  1  0
  8  9  1  0
  5  3  1  0
  8  3  1  0
  2 10  1  0
  4 11  1  0
  4 12  1  0
  5 13  1  0
  6 14  1  0
  7 15  1  0
  8 16  1  0
  9 17  1  0
M  END
