
     RDKit          3D

 19 20  0  0  0  0  0  0  0  0999 V2000
    2.6660   -0.4902    1.1282 O   0  0  0  0  0  0  0  0  0  0  0  0
    1.7578   -1.1875    0.6841 C   0  0  0  0  0  0  0  0  0  0  0  0
    0.5563   -0.6117    0.0557 C   0  0  0  0  0  0  0  0  0  0  0  0
    0.9114    0.4976   -0.9288 C   0  0  0  0  0  0  0  0  0  0  0  0
    0.6661    1.4790    0.2044 C   0  0  0  0  0  0  0  0  0  0  0  0
   -0.1753    0.4198    0.8696 C   0  0  0  0  0  0  0  0  0  0  0  0
   -1.5766    0.3212    0.3371 C   0  0  0  0  0  0  0  0  0  0  0  0
   -1.6133   -1.0051   -0.3296 C   0  0  0  0  0  0  0  0  0  0  0  0
   -0.3517   -1.5301   -0.3822 O   0  0  0  0  0  0  0  0  0  0  0  0
    1.8352   -2.2662    0.7531 H   0  0  0  0  0  0  0  0  0  0  0  0
    1.9646    0.4622   -1.2877 H   0  0  0  0  0  0  0  0  0  0  0  0
    0.1404    0.5153   -1.7260 H   0  0  0  0  0  0  0  0  0  0  0  0
    0.0487    2.3250   -0.1896 H   0  0  0  0  0  0  0  0  0  0  0  0
    1.5706    1.7641    0.7434 H   0  0  0  0  0  0  0  0  0  0  0  0
   -0.0858    0.3464    1.9586 H   0  0  0  0  0  0  0  0  0  0  0  0
   -1.7283    1.1723   -0.3817 H   0  0  0  0  0  0  0  0  0  0  0  0
   -2.3013    0.4418    1.1617 H   0  0  0  0  0  0  0  0  0  0  0  0
   -2.0443   -0.9632   -1.3649 H   0  0  0  0  0  0  0  0  0  0  0  0
   -2.2403   -1.6906    0.2948 H   0  0  0  0  0  0  0  0  0  0  0  0
  1  2  2  0
  2  3  1  0
  3  4  1  0
  4  5  1  0
  5  6  1  0
  6  7  1  0
  7  8  1  0
  8  9  1  0
  6  3  1  0
  9  3  1  0
  2 10  1  0
  4 11  1  0
  4 12  1  0
  5 13  1  0
  5 14  1  0
  6 15  1  0
  7 16  1  0
  7 17  1  0
  8 18  1  0
  8 19  1  0
M  END
