
     RDKit          3D

 17 19  0  0  0  0  0  0  0  0999 V2000
    1.5733    1.9198   -1.3102 O   0  0  0  0  0  0  0  0  0  0  0  0
    0.7491    1.8665   -0.4111 C   0  0  0  0  0  0  0  0  0  0  0  0
    0.6959    0.6241    0.3916 C   0  0  0  0  0  0  0  0  0  0  0  0
    1.7345   -0.4038    0.0362 C   0  0  0  0  0  0  0  0  0  0  0  0
    1.5803   -1.1969   -1.0868 O   0  0  0  0  0  0  0  0  0  0  0  0
    0.6178   -1.4465   -0.1117 C   0  0  0  0  0  0  0  0  0  0  0  0
   -0.3624   -0.3477    0.0942 C   0  0  0  0  0  0  0  0  0  0  0  0
   -1.6526   -0.4606    0.7213 C   0  0  0  0  0  0  0  0  0  0  0  0
   -1.5359   -0.1245   -0.7404 C   0  0  0  0  0  0  0  0  0  0  0  0
    0.0613    2.6565   -0.1624 H   0  0  0  0  0  0  0  0  0  0  0  0
    0.7915    0.8674    1.4864 H   0  0  0  0  0  0  0  0  0  0  0  0
    2.5725   -0.6105    0.6982 H   0  0  0  0  0  0  0  0  0  0  0  0
    0.7320   -2.2791    0.5886 H   0  0  0  0  0  0  0  0  0  0  0  0
   -2.0145   -1.4416    1.0508 H   0  0  0  0  0  0  0  0  0  0  0  0
   -2.0617    0.3943    1.3334 H   0  0  0  0  0  0  0  0  0  0  0  0
   -1.7326    0.9122   -1.0788 H   0  0  0  0  0  0  0  0  0  0  0  0
   -1.7485   -0.9297   -1.4994 H   0  0  0  0  0  0  0  0  0  0  0  0
  1  2  2  0
  2  3  1  0
  3  4  1  0
  4  5  1  0
  5  6  1  0
  6  7  1  0
  7  8  1  0
  8  9  1  0
  7  3  1  0
  6  4  1  0
  9  7  1  0
  2 10  1  0
  3 11  1  0
  4 12  1  0
  6 13  1  0
  8 14  1  0
  8 15  1  0
  9 16  1  0
  9 17  1  0
M  END
