
     RDKit          3D

 17 18  0  0  0  0  0  0  0  0999 V2000
    3.4526    0.3146    0.5413 O   0  0  0  0  0  0  0  0  0  0  0  0
    2.6439   -0.2925   -0.1993 C   0  0  0  0  0  0  0  0  0  0  0  0
    1.1830   -0.0580   -0.1246 C   0  0  0  0  0  0  0  0  0  0  0  0
    0.2464   -0.6217   -0.8344 C   0  0  0  0  0  0  0  0  0  0  0  0
   -1.0595   -0.1355   -0.4744 C   0  0  0  0  0  0  0  0  0  0  0  0
   -0.8187    1.1281    0.3027 C   0  0  0  0  0  0  0  0  0  0  0  0
    0.5760    0.8971    0.8191 C   0  0  0  0  0  0  0  0  0  0  0  0
   -2.1127   -1.1042   -0.0809 C   0  0  0  0  0  0  0  0  0  0  0  0
   -2.1800   -0.2998   -1.2403 O   0  0  0  0  0  0  0  0  0  0  0  0
    2.9810   -1.0152   -0.9258 H   0  0  0  0  0  0  0  0  0  0  0  0
    0.4454   -1.3707   -1.6051 H   0  0  0  0  0  0  0  0  0  0  0  0
   -0.8552    1.9919   -0.4005 H   0  0  0  0  0  0  0  0  0  0  0  0
   -1.5692    1.2131    1.1184 H   0  0  0  0  0  0  0  0  0  0  0  0
    0.6041    0.5053    1.8533 H   0  0  0  0  0  0  0  0  0  0  0  0
    1.1524    1.8414    0.7473 H   0  0  0  0  0  0  0  0  0  0  0  0
   -2.7275   -0.8086    0.7944 H   0  0  0  0  0  0  0  0  0  0  0  0
   -1.9620   -2.1852   -0.2911 H   0  0  0  0  0  0  0  0  0  0  0  0
  1  2  2  0
  2  3  1  0
  3  4  2  0
  4  5  1  0
  5  6  1  0
  6  7  1  0
  5  8  1  0
  8  9  1  0
  7  3  1  0
  9  5  1  0
  2 10  1  0
  4 11  1  0
  6 12  1  0
  6 13  1  0
  7 14  1  0
  7 15  1  0
  8 16  1  0
  8 17  1  0
M  END
