
     RDKit          3D

 19 19  0  0  0  0  0  0  0  0999 V2000
    3.1408   -1.1618   -0.2266 O   0  0  0  0  0  0  0  0  0  0  0  0
    2.5844   -0.0782   -0.1729 C   0  0  0  0  0  0  0  0  0  0  0  0
    1.2377   -0.0036    0.4578 C   0  0  0  0  0  0  0  0  0  0  0  0
    0.5808    1.2290    0.0131 C   0  0  0  0  0  0  0  0  0  0  0  0
   -0.7055    1.5048   -0.1218 C   0  0  0  0  0  0  0  0  0  0  0  0
   -1.8204    0.5915    0.1579 C   0  0  0  0  0  0  0  0  0  0  0  0
   -1.7108   -0.7525   -0.4937 C   0  0  0  0  0  0  0  0  0  0  0  0
   -0.4170   -1.0312   -0.8568 O   0  0  0  0  0  0  0  0  0  0  0  0
    0.4347   -1.2488    0.2196 C   0  0  0  0  0  0  0  0  0  0  0  0
    3.1101    0.7660   -0.5906 H   0  0  0  0  0  0  0  0  0  0  0  0
    1.4150    0.0846    1.5582 H   0  0  0  0  0  0  0  0  0  0  0  0
    1.2645    2.0298   -0.2409 H   0  0  0  0  0  0  0  0  0  0  0  0
   -0.9228    2.5252   -0.4799 H   0  0  0  0  0  0  0  0  0  0  0  0
   -2.7570    1.0904   -0.2319 H   0  0  0  0  0  0  0  0  0  0  0  0
   -2.0199    0.4909    1.2637 H   0  0  0  0  0  0  0  0  0  0  0  0
   -2.3269   -0.7989   -1.4328 H   0  0  0  0  0  0  0  0  0  0  0  0
   -2.1467   -1.5705    0.1513 H   0  0  0  0  0  0  0  0  0  0  0  0
    1.1476   -2.0437   -0.0901 H   0  0  0  0  0  0  0  0  0  0  0  0
   -0.0885   -1.6231    1.1164 H   0  0  0  0  0  0  0  0  0  0  0  0
  1  2  2  0
  2  3  1  0
  3  4  1  0
  4  5  2  0
  5  6  1  0
  6  7  1  0
  7  8  1  0
  8  9  1  0
  9  3  1  0
  2 10  1  0
  3 11  1  0
  4 12  1  0
  5 13  1  0
  6 14  1  0
  6 15  1  0
  7 16  1  0
  7 17  1  0
  9 18  1  0
  9 19  1  0
M  END
