
     RDKit          3D

 19 20  0  0  0  0  0  0  0  0999 V2000
    1.9689   -1.8929   -0.0151 O   0  0  0  0  0  0  0  0  0  0  0  0
    1.5057   -0.9358   -0.5889 C   0  0  0  0  0  0  0  0  0  0  0  0
    0.9115    0.1253    0.2656 C   0  0  0  0  0  0  0  0  0  0  0  0
    0.0197   -0.4682    1.2990 C   0  0  0  0  0  0  0  0  0  0  0  0
   -1.0638   -1.0587    0.3695 C   0  0  0  0  0  0  0  0  0  0  0  0
   -0.9176   -0.2223   -0.9158 C   0  0  0  0  0  0  0  0  0  0  0  0
   -0.2656    0.9793   -0.3671 C   0  0  0  0  0  0  0  0  0  0  0  0
   -1.1654    1.5562    0.5801 O   0  0  0  0  0  0  0  0  0  0  0  0
    1.0508    1.4357   -0.2319 C   0  0  0  0  0  0  0  0  0  0  0  0
    1.5641   -0.9364   -1.6596 H   0  0  0  0  0  0  0  0  0  0  0  0
    0.5127   -1.3258    1.7844 H   0  0  0  0  0  0  0  0  0  0  0  0
   -0.4501    0.2435    1.9754 H   0  0  0  0  0  0  0  0  0  0  0  0
   -0.8137   -2.0920    0.0815 H   0  0  0  0  0  0  0  0  0  0  0  0
   -2.0521   -0.9664    0.8120 H   0  0  0  0  0  0  0  0  0  0  0  0
   -1.9752   -0.0189   -1.2297 H   0  0  0  0  0  0  0  0  0  0  0  0
   -0.4499   -0.7548   -1.7275 H   0  0  0  0  0  0  0  0  0  0  0  0
   -1.3498    2.4687    0.2002 H   0  0  0  0  0  0  0  0  0  0  0  0
    1.6480    1.6319   -1.1555 H   0  0  0  0  0  0  0  0  0  0  0  0
    1.3217    2.2315    0.5234 H   0  0  0  0  0  0  0  0  0  0  0  0
  1  2  2  0
  2  3  1  0
  3  4  1  0
  4  5  1  0
  5  6  1  0
  6  7  1  0
  7  8  1  0
  7  9  1  0
  7  3  1  0
  9  3  1  0
  2 10  1  0
  4 11  1  0
  4 12  1  0
  5 13  1  0
  5 14  1  0
  6 15  1  0
  6 16  1  0
  8 17  1  0
  9 18  1  0
  9 19  1  0
M  END
