
     RDKit          3D

 19 21  0  0  0  0  0  0  0  0999 V2000
    2.8339   -1.5934   -0.6140 O   0  0  0  0  0  0  0  0  0  0  0  0
    1.7669   -1.4379   -0.0448 C   0  0  0  0  0  0  0  0  0  0  0  0
    0.7827   -0.4643   -0.5378 C   0  0  0  0  0  0  0  0  0  0  0  0
    0.8177    0.7911    0.2939 C   0  0  0  0  0  0  0  0  0  0  0  0
    0.3407    2.0275   -0.4087 C   0  0  0  0  0  0  0  0  0  0  0  0
   -0.5896    1.2559    0.4243 C   0  0  0  0  0  0  0  0  0  0  0  0
   -1.4500    0.1591   -0.0984 C   0  0  0  0  0  0  0  0  0  0  0  0
   -1.3860   -1.1255    0.7416 C   0  0  0  0  0  0  0  0  0  0  0  0
   -0.6316   -0.9761   -0.5097 C   0  0  0  0  0  0  0  0  0  0  0  0
    1.5922   -2.0510    0.8314 H   0  0  0  0  0  0  0  0  0  0  0  0
    1.0013   -0.1684   -1.5843 H   0  0  0  0  0  0  0  0  0  0  0  0
    1.5315    0.8803    1.1343 H   0  0  0  0  0  0  0  0  0  0  0  0
    0.6604    3.0188   -0.0335 H   0  0  0  0  0  0  0  0  0  0  0  0
    0.1799    2.0228   -1.5076 H   0  0  0  0  0  0  0  0  0  0  0  0
   -0.8681    1.5935    1.4641 H   0  0  0  0  0  0  0  0  0  0  0  0
   -2.4139    0.4129   -0.5794 H   0  0  0  0  0  0  0  0  0  0  0  0
   -2.3063   -1.7176    0.7021 H   0  0  0  0  0  0  0  0  0  0  0  0
   -0.9234   -1.0672    1.7356 H   0  0  0  0  0  0  0  0  0  0  0  0
   -0.9383   -1.5602   -1.4091 H   0  0  0  0  0  0  0  0  0  0  0  0
  1  2  2  0
  2  3  1  0
  3  4  1  0
  4  5  1  0
  5  6  1  0
  6  7  1  0
  7  8  1  0
  8  9  1  0
  9  3  1  0
  6  4  1  0
  9  7  1  0
  2 10  1  0
  3 11  1  0
  4 12  1  0
  5 13  1  0
  5 14  1  0
  6 15  1  0
  7 16  1  0
  8 17  1  0
  8 18  1  0
  9 19  1  0
M  END
