
     RDKit          3D

 19 19  0  0  0  0  0  0  0  0999 V2000
   -3.0444   -0.0044   -1.3987 O   0  0  0  0  0  0  0  0  0  0  0  0
   -2.6965    0.6773   -0.4564 C   0  0  0  0  0  0  0  0  0  0  0  0
   -1.5760    0.3159    0.4369 C   0  0  0  0  0  0  0  0  0  0  0  0
   -1.2039   -1.0991    0.6705 C   0  0  0  0  0  0  0  0  0  0  0  0
   -0.3793   -0.2681   -0.3319 C   0  0  0  0  0  0  0  0  0  0  0  0
    0.9459    0.2530    0.1203 C   0  0  0  0  0  0  0  0  0  0  0  0
    1.1541   -0.0443    1.4651 O   0  0  0  0  0  0  0  0  0  0  0  0
    2.0542   -0.3698   -0.7130 C   0  0  0  0  0  0  0  0  0  0  0  0
    3.2536    0.1967   -0.2467 O   0  0  0  0  0  0  0  0  0  0  0  0
   -3.2327    1.5911   -0.2636 H   0  0  0  0  0  0  0  0  0  0  0  0
   -1.3610    1.0181    1.2543 H   0  0  0  0  0  0  0  0  0  0  0  0
   -0.6606   -1.3420    1.5821 H   0  0  0  0  0  0  0  0  0  0  0  0
   -1.7943   -1.9370    0.2531 H   0  0  0  0  0  0  0  0  0  0  0  0
   -0.5063   -0.5254   -1.3958 H   0  0  0  0  0  0  0  0  0  0  0  0
    0.9698    1.3430   -0.0759 H   0  0  0  0  0  0  0  0  0  0  0  0
    0.7884    0.6667    2.0257 H   0  0  0  0  0  0  0  0  0  0  0  0
    1.8875   -0.1398   -1.7813 H   0  0  0  0  0  0  0  0  0  0  0  0
    2.1255   -1.4529   -0.5221 H   0  0  0  0  0  0  0  0  0  0  0  0
    3.2761    1.1212   -0.6224 H   0  0  0  0  0  0  0  0  0  0  0  0
  1  2  2  0
  2  3  1  0
  3  4  1  0
  4  5  1  0
  5  6  1  0
  6  7  1  0
  6  8  1  0
  8  9  1  0
  5  3  1  0
  2 10  1  0
  3 11  1  0
  4 12  1  0
  4 13  1  0
  5 14  1  0
  6 15  1  0
  7 16  1  0
  8 17  1  0
  8 18  1  0
  9 19  1  0
M  END
