
     RDKit          3D

 19 20  0  0  0  0  0  0  0  0999 V2000
    2.8345   -0.8771   -1.6953 O   0  0  0  0  0  0  0  0  0  0  0  0
    2.3621   -0.8380   -0.5881 C   0  0  0  0  0  0  0  0  0  0  0  0
    1.1556    0.0011   -0.2623 C   0  0  0  0  0  0  0  0  0  0  0  0
    0.8812    0.9379   -1.2537 O   0  0  0  0  0  0  0  0  0  0  0  0
    1.0787    0.5612    1.1309 C   0  0  0  0  0  0  0  0  0  0  0  0
    0.1652   -0.5353    0.6604 C   0  0  0  0  0  0  0  0  0  0  0  0
   -1.2884   -0.2311    0.6444 C   0  0  0  0  0  0  0  0  0  0  0  0
   -2.1448   -0.5994   -0.5721 C   0  0  0  0  0  0  0  0  0  0  0  0
   -1.8806    0.8638   -0.1542 C   0  0  0  0  0  0  0  0  0  0  0  0
    2.8037   -1.4238    0.2298 H   0  0  0  0  0  0  0  0  0  0  0  0
    1.7274    1.4007   -1.5274 H   0  0  0  0  0  0  0  0  0  0  0  0
    1.9505    0.3007    1.7864 H   0  0  0  0  0  0  0  0  0  0  0  0
    0.6736    1.5499    1.3407 H   0  0  0  0  0  0  0  0  0  0  0  0
    0.4229   -1.5501    1.0947 H   0  0  0  0  0  0  0  0  0  0  0  0
   -1.8053   -0.4296    1.6268 H   0  0  0  0  0  0  0  0  0  0  0  0
   -3.1699   -0.9906   -0.3680 H   0  0  0  0  0  0  0  0  0  0  0  0
   -1.6376   -1.0048   -1.4530 H   0  0  0  0  0  0  0  0  0  0  0  0
   -2.7633    1.4242    0.2785 H   0  0  0  0  0  0  0  0  0  0  0  0
   -1.3655    1.4403   -0.9185 H   0  0  0  0  0  0  0  0  0  0  0  0
  1  2  2  0
  2  3  1  0
  3  4  1  0
  3  5  1  0
  5  6  1  0
  6  7  1  0
  7  8  1  0
  8  9  1  0
  6  3  1  0
  9  7  1  0
  2 10  1  0
  4 11  1  0
  5 12  1  0
  5 13  1  0
  6 14  1  0
  7 15  1  0
  8 16  1  0
  8 17  1  0
  9 18  1  0
  9 19  1  0
M  END
