
     RDKit          3D

 19 20  0  0  0  0  0  0  0  0999 V2000
    2.5869    1.2845   -0.7625 O   0  0  0  0  0  0  0  0  0  0  0  0
    2.1562    0.4022   -0.0079 C   0  0  0  0  0  0  0  0  0  0  0  0
    0.7795    0.0731    0.0399 C   0  0  0  0  0  0  0  0  0  0  0  0
   -0.1627    0.7945    0.9517 C   0  0  0  0  0  0  0  0  0  0  0  0
   -1.4821    0.1350    0.5006 C   0  0  0  0  0  0  0  0  0  0  0  0
   -2.1709    1.1165   -0.2374 O   0  0  0  0  0  0  0  0  0  0  0  0
   -0.9160   -0.9334   -0.3842 C   0  0  0  0  0  0  0  0  0  0  0  0
    0.3812   -1.3862    0.2881 C   0  0  0  0  0  0  0  0  0  0  0  0
    0.0150   -0.1009   -1.2754 C   0  0  0  0  0  0  0  0  0  0  0  0
    2.9048   -0.0888    0.6019 H   0  0  0  0  0  0  0  0  0  0  0  0
   -0.1861    1.8733    0.8433 H   0  0  0  0  0  0  0  0  0  0  0  0
    0.0029    0.4489    1.9839 H   0  0  0  0  0  0  0  0  0  0  0  0
   -2.0593   -0.2347    1.3548 H   0  0  0  0  0  0  0  0  0  0  0  0
   -1.6286    1.9088   -0.3999 H   0  0  0  0  0  0  0  0  0  0  0  0
   -1.5298   -1.6564   -0.8413 H   0  0  0  0  0  0  0  0  0  0  0  0
    0.3027   -1.6151    1.3485 H   0  0  0  0  0  0  0  0  0  0  0  0
    0.8897   -2.1005   -0.3614 H   0  0  0  0  0  0  0  0  0  0  0  0
    0.5691   -0.7313   -1.9805 H   0  0  0  0  0  0  0  0  0  0  0  0
   -0.4524    0.8105   -1.6621 H   0  0  0  0  0  0  0  0  0  0  0  0
  1  2  2  0
  2  3  1  0
  3  4  1  0
  4  5  1  0
  5  6  1  0
  5  7  1  0
  7  8  1  0
  7  9  1  0
  8  3  1  0
  9  3  1  0
  2 10  1  0
  4 11  1  0
  4 12  1  0
  5 13  1  0
  6 14  1  0
  7 15  1  0
  8 16  1  0
  8 17  1  0
  9 18  1  0
  9 19  1  0
M  END
