
     RDKit          3D

 19 20  0  0  0  0  0  0  0  0999 V2000
    2.9980    0.6845    0.9011 O   0  0  0  0  0  0  0  0  0  0  0  0
    1.9902    0.0400    0.8220 C   0  0  0  0  0  0  0  0  0  0  0  0
    0.8479    0.4898   -0.0243 C   0  0  0  0  0  0  0  0  0  0  0  0
    1.1752    1.6764   -0.6252 O   0  0  0  0  0  0  0  0  0  0  0  0
    0.6145   -0.5831   -1.0590 C   0  0  0  0  0  0  0  0  0  0  0  0
   -0.6648   -1.2697   -0.7232 C   0  0  0  0  0  0  0  0  0  0  0  0
   -1.1507   -0.6324    0.5327 C   0  0  0  0  0  0  0  0  0  0  0  0
   -1.7219    0.7650    0.3389 C   0  0  0  0  0  0  0  0  0  0  0  0
   -0.3647    0.5549    0.8454 C   0  0  0  0  0  0  0  0  0  0  0  0
    1.9255   -0.8960    1.3904 H   0  0  0  0  0  0  0  0  0  0  0  0
    0.3668    2.2324   -0.8156 H   0  0  0  0  0  0  0  0  0  0  0  0
    0.6210   -0.1134   -2.0689 H   0  0  0  0  0  0  0  0  0  0  0  0
    1.4190   -1.3481   -1.0797 H   0  0  0  0  0  0  0  0  0  0  0  0
   -1.4030   -1.0240   -1.5309 H   0  0  0  0  0  0  0  0  0  0  0  0
   -0.5609   -2.3573   -0.5705 H   0  0  0  0  0  0  0  0  0  0  0  0
   -1.5139   -1.2358    1.3869 H   0  0  0  0  0  0  0  0  0  0  0  0
   -1.9234    1.1252   -0.6827 H   0  0  0  0  0  0  0  0  0  0  0  0
   -2.4967    1.0264    1.0651 H   0  0  0  0  0  0  0  0  0  0  0  0
   -0.1580    0.8651    1.8975 H   0  0  0  0  0  0  0  0  0  0  0  0
  1  2  2  0
  2  3  1  0
  3  4  1  0
  3  5  1  0
  5  6  1  0
  6  7  1  0
  7  8  1  0
  8  9  1  0
  9  3  1  0
  9  7  1  0
  2 10  1  0
  4 11  1  0
  5 12  1  0
  5 13  1  0
  6 14  1  0
  6 15  1  0
  7 16  1  0
  8 17  1  0
  8 18  1  0
  9 19  1  0
M  END
