
     RDKit          3D

 19 20  0  0  0  0  0  0  0  0999 V2000
    3.2995    0.6303   -0.7759 O   0  0  0  0  0  0  0  0  0  0  0  0
    2.1674    0.6536   -0.3233 C   0  0  0  0  0  0  0  0  0  0  0  0
    1.1317   -0.3745   -0.6343 C   0  0  0  0  0  0  0  0  0  0  0  0
    1.5313   -1.3726   -1.4782 O   0  0  0  0  0  0  0  0  0  0  0  0
    0.4008   -0.8287    0.6235 C   0  0  0  0  0  0  0  0  0  0  0  0
   -0.7173    0.0544    0.2181 C   0  0  0  0  0  0  0  0  0  0  0  0
   -2.1059   -0.1391    0.5767 C   0  0  0  0  0  0  0  0  0  0  0  0
   -1.3018    1.1053    1.0324 C   0  0  0  0  0  0  0  0  0  0  0  0
   -0.1820    0.2344   -1.1486 C   0  0  0  0  0  0  0  0  0  0  0  0
    1.9426    1.4832    0.3366 H   0  0  0  0  0  0  0  0  0  0  0  0
    1.3734   -2.2677   -1.0535 H   0  0  0  0  0  0  0  0  0  0  0  0
    0.8902   -0.5137    1.5686 H   0  0  0  0  0  0  0  0  0  0  0  0
    0.0913   -1.8942    0.6157 H   0  0  0  0  0  0  0  0  0  0  0  0
   -2.8747    0.0236   -0.1955 H   0  0  0  0  0  0  0  0  0  0  0  0
   -2.3116   -0.8821    1.4015 H   0  0  0  0  0  0  0  0  0  0  0  0
   -1.5977    2.0438    0.5104 H   0  0  0  0  0  0  0  0  0  0  0  0
   -1.0634    1.1737    2.1073 H   0  0  0  0  0  0  0  0  0  0  0  0
   -0.7024   -0.3922   -1.8814 H   0  0  0  0  0  0  0  0  0  0  0  0
    0.0287    1.2623   -1.4928 H   0  0  0  0  0  0  0  0  0  0  0  0
  1  2  2  0
  2  3  1  0
  3  4  1  0
  3  5  1  0
  5  6  1  0
  6  7  1  0
  7  8  1  0
  6  9  1  0
  9  3  1  0
  8  6  1  0
  2 10  1  0
  4 11  1  0
  5 12  1  0
  5 13  1  0
  7 14  1  0
  7 15  1  0
  8 16  1  0
  8 17  1  0
  9 18  1  0
  9 19  1  0
M  END
