
     RDKit          3D

 19 20  0  0  0  0  0  0  0  0999 V2000
    2.3507   -1.9607   -0.8794 O   0  0  0  0  0  0  0  0  0  0  0  0
    1.2741   -1.4274   -0.6892 C   0  0  0  0  0  0  0  0  0  0  0  0
    1.1481    0.0301   -0.4577 C   0  0  0  0  0  0  0  0  0  0  0  0
   -0.2118    0.6031   -0.2326 C   0  0  0  0  0  0  0  0  0  0  0  0
   -0.9680    0.0739    0.9481 C   0  0  0  0  0  0  0  0  0  0  0  0
   -2.1759   -0.1128    0.0290 C   0  0  0  0  0  0  0  0  0  0  0  0
   -1.2971    0.1829   -1.1594 C   0  0  0  0  0  0  0  0  0  0  0  0
    2.2719    0.6811    0.2249 C   0  0  0  0  0  0  0  0  0  0  0  0
    2.0305    0.7926   -1.2094 O   0  0  0  0  0  0  0  0  0  0  0  0
    0.4076   -2.0756   -0.6977 H   0  0  0  0  0  0  0  0  0  0  0  0
   -0.1503    1.7257   -0.1546 H   0  0  0  0  0  0  0  0  0  0  0  0
   -0.5739   -0.8673    1.3730 H   0  0  0  0  0  0  0  0  0  0  0  0
   -1.1471    0.7897    1.7777 H   0  0  0  0  0  0  0  0  0  0  0  0
   -2.5755   -1.1506    0.0131 H   0  0  0  0  0  0  0  0  0  0  0  0
   -2.9891    0.6318    0.2004 H   0  0  0  0  0  0  0  0  0  0  0  0
   -1.1127   -0.7076   -1.7835 H   0  0  0  0  0  0  0  0  0  0  0  0
   -1.6697    1.0282   -1.8012 H   0  0  0  0  0  0  0  0  0  0  0  0
    3.1553    0.0783    0.4899 H   0  0  0  0  0  0  0  0  0  0  0  0
    2.2330    1.6847    0.6615 H   0  0  0  0  0  0  0  0  0  0  0  0
  1  2  2  0
  2  3  1  0
  3  4  1  0
  4  5  1  0
  5  6  1  0
  6  7  1  0
  3  8  1  0
  8  9  1  0
  9  3  1  0
  7  4  1  0
  2 10  1  0
  4 11  1  0
  5 12  1  0
  5 13  1  0
  6 14  1  0
  6 15  1  0
  7 16  1  0
  7 17  1  0
  8 18  1  0
  8 19  1  0
M  END
