
     RDKit          3D

 21 21  0  0  0  0  0  0  0  0999 V2000
   -1.3505    2.0562   -1.4240 O   0  0  0  0  0  0  0  0  0  0  0  0
   -0.9891    1.8864   -0.2867 C   0  0  0  0  0  0  0  0  0  0  0  0
   -0.9690    0.5335    0.2675 C   0  0  0  0  0  0  0  0  0  0  0  0
   -2.1576   -0.3405   -0.1044 C   0  0  0  0  0  0  0  0  0  0  0  0
   -1.1713   -1.4928   -0.0673 C   0  0  0  0  0  0  0  0  0  0  0  0
   -0.1289   -0.4801   -0.5012 C   0  0  0  0  0  0  0  0  0  0  0  0
    1.2302   -0.7084    0.1137 C   0  0  0  0  0  0  0  0  0  0  0  0
    1.9774    0.6070    0.1312 C   0  0  0  0  0  0  0  0  0  0  0  0
    3.2156    0.4069    0.6898 O   0  0  0  0  0  0  0  0  0  0  0  0
   -0.6854    2.7168    0.3131 H   0  0  0  0  0  0  0  0  0  0  0  0
   -0.7046    0.4503    1.3476 H   0  0  0  0  0  0  0  0  0  0  0  0
   -2.9510   -0.3830    0.6644 H   0  0  0  0  0  0  0  0  0  0  0  0
   -2.4732   -0.1027   -1.1310 H   0  0  0  0  0  0  0  0  0  0  0  0
   -0.9747   -1.7962    0.9754 H   0  0  0  0  0  0  0  0  0  0  0  0
   -1.3707   -2.3010   -0.7904 H   0  0  0  0  0  0  0  0  0  0  0  0
   -0.1355   -0.3030   -1.5860 H   0  0  0  0  0  0  0  0  0  0  0  0
    1.7542   -1.4411   -0.5162 H   0  0  0  0  0  0  0  0  0  0  0  0
    1.0738   -1.1374    1.1104 H   0  0  0  0  0  0  0  0  0  0  0  0
    1.4517    1.3893    0.6905 H   0  0  0  0  0  0  0  0  0  0  0  0
    2.0399    0.9402   -0.9388 H   0  0  0  0  0  0  0  0  0  0  0  0
    3.3187   -0.5004    1.0424 H   0  0  0  0  0  0  0  0  0  0  0  0
  1  2  2  0
  2  3  1  0
  3  4  1  0
  4  5  1  0
  5  6  1  0
  6  7  1  0
  7  8  1  0
  8  9  1  0
  6  3  1  0
  2 10  1  0
  3 11  1  0
  4 12  1  0
  4 13  1  0
  5 14  1  0
  5 15  1  0
  6 16  1  0
  7 17  1  0
  7 18  1  0
  8 19  1  0
  8 20  1  0
  9 21  1  0
M  END
