
     RDKit          3D

 19 19  0  0  0  0  0  0  0  0999 V2000
    2.9664    1.7342    0.3171 O   0  0  0  0  0  0  0  0  0  0  0  0
    2.5827    0.6444    0.6836 C   0  0  0  0  0  0  0  0  0  0  0  0
    1.7889   -0.1699   -0.2628 C   0  0  0  0  0  0  0  0  0  0  0  0
    0.3586    0.3188   -0.3025 C   0  0  0  0  0  0  0  0  0  0  0  0
   -0.5445   -0.4580   -1.2674 C   0  0  0  0  0  0  0  0  0  0  0  0
   -0.7380   -0.5114    0.2375 C   0  0  0  0  0  0  0  0  0  0  0  0
   -0.5427   -1.7784    0.7622 O   0  0  0  0  0  0  0  0  0  0  0  0
   -1.9614    0.1882    0.7943 C   0  0  0  0  0  0  0  0  0  0  0  0
   -2.0528    1.4498    0.2015 O   0  0  0  0  0  0  0  0  0  0  0  0
    2.8076    0.2737    1.6656 H   0  0  0  0  0  0  0  0  0  0  0  0
    1.8550   -1.2307    0.0567 H   0  0  0  0  0  0  0  0  0  0  0  0
    2.2832   -0.0965   -1.2565 H   0  0  0  0  0  0  0  0  0  0  0  0
    0.2250    1.4093   -0.3007 H   0  0  0  0  0  0  0  0  0  0  0  0
   -1.2539    0.1229   -1.8912 H   0  0  0  0  0  0  0  0  0  0  0  0
   -0.1018   -1.3424   -1.7903 H   0  0  0  0  0  0  0  0  0  0  0  0
    0.0225   -2.3099    0.1601 H   0  0  0  0  0  0  0  0  0  0  0  0
   -1.9269    0.3303    1.8808 H   0  0  0  0  0  0  0  0  0  0  0  0
   -2.8509   -0.4635    0.5384 H   0  0  0  0  0  0  0  0  0  0  0  0
   -2.9169    1.8890    0.4304 H   0  0  0  0  0  0  0  0  0  0  0  0
  1  2  2  0
  2  3  1  0
  3  4  1  0
  4  5  1  0
  5  6  1  0
  6  7  1  0
  6  8  1  0
  8  9  1  0
  6  4  1  0
  2 10  1  0
  3 11  1  0
  3 12  1  0
  4 13  1  0
  5 14  1  0
  5 15  1  0
  7 16  1  0
  8 17  1  0
  8 18  1  0
  9 19  1  0
M  END
