
     RDKit          3D

 17 18  0  0  0  0  0  0  0  0999 V2000
   -2.5098   -1.8092   -0.7956 O   0  0  0  0  0  0  0  0  0  0  0  0
   -1.6322   -1.0356   -1.1516 C   0  0  0  0  0  0  0  0  0  0  0  0
   -0.9474   -0.2424   -0.1212 C   0  0  0  0  0  0  0  0  0  0  0  0
   -1.3520   -0.4273    1.2271 O   0  0  0  0  0  0  0  0  0  0  0  0
   -1.3072    0.8472    0.6003 C   0  0  0  0  0  0  0  0  0  0  0  0
    0.0830    1.4709    0.4732 C   0  0  0  0  0  0  0  0  0  0  0  0
    0.4670    0.2485   -0.3354 C   0  0  0  0  0  0  0  0  0  0  0  0
    1.4174   -0.6956    0.3820 C   0  0  0  0  0  0  0  0  0  0  0  0
    2.7370   -0.3275    0.2429 O   0  0  0  0  0  0  0  0  0  0  0  0
   -1.4132   -0.9828   -2.2074 H   0  0  0  0  0  0  0  0  0  0  0  0
   -2.1839    1.4964    0.6703 H   0  0  0  0  0  0  0  0  0  0  0  0
    0.6129    1.6207    1.4099 H   0  0  0  0  0  0  0  0  0  0  0  0
    0.0495    2.3680   -0.1397 H   0  0  0  0  0  0  0  0  0  0  0  0
    0.6669    0.4144   -1.3945 H   0  0  0  0  0  0  0  0  0  0  0  0
    1.1978   -1.7161   -0.0208 H   0  0  0  0  0  0  0  0  0  0  0  0
    1.1091   -0.6913    1.4394 H   0  0  0  0  0  0  0  0  0  0  0  0
    3.0050   -0.5382   -0.6923 H   0  0  0  0  0  0  0  0  0  0  0  0
  1  2  2  0
  2  3  1  0
  3  4  1  0
  4  5  1  0
  5  6  1  0
  6  7  1  0
  7  8  1  0
  8  9  1  0
  5  3  1  0
  7  3  1  0
  2 10  1  0
  5 11  1  0
  6 12  1  0
  6 13  1  0
  7 14  1  0
  8 15  1  0
  8 16  1  0
  9 17  1  0
M  END
