
     RDKit          3D

 17 17  0  0  0  0  0  0  0  0999 V2000
    3.3044   -0.2078   -0.7436 O   0  0  0  0  0  0  0  0  0  0  0  0
    2.3462   -0.9642   -0.5725 C   0  0  0  0  0  0  0  0  0  0  0  0
    1.0066   -0.4538   -0.3021 C   0  0  0  0  0  0  0  0  0  0  0  0
    0.0611   -1.3723   -0.1367 C   0  0  0  0  0  0  0  0  0  0  0  0
   -1.3618   -1.0787    0.1457 C   0  0  0  0  0  0  0  0  0  0  0  0
   -1.5898   -0.0679    1.0110 O   0  0  0  0  0  0  0  0  0  0  0  0
   -1.4318    1.2027    0.6855 C   0  0  0  0  0  0  0  0  0  0  0  0
   -0.1596    1.6824    0.1712 C   0  0  0  0  0  0  0  0  0  0  0  0
    0.8785    1.0006   -0.2493 C   0  0  0  0  0  0  0  0  0  0  0  0
    2.4836   -2.0243   -0.6203 H   0  0  0  0  0  0  0  0  0  0  0  0
    0.3705   -2.4211   -0.2177 H   0  0  0  0  0  0  0  0  0  0  0  0
   -1.7977   -2.0093    0.5771 H   0  0  0  0  0  0  0  0  0  0  0  0
   -1.9135   -0.9146   -0.8263 H   0  0  0  0  0  0  0  0  0  0  0  0
   -2.2505    1.5053   -0.0374 H   0  0  0  0  0  0  0  0  0  0  0  0
   -1.6697    1.8296    1.5980 H   0  0  0  0  0  0  0  0  0  0  0  0
   -0.0362    2.7675    0.1225 H   0  0  0  0  0  0  0  0  0  0  0  0
    1.7596    1.5258   -0.6052 H   0  0  0  0  0  0  0  0  0  0  0  0
  1  2  2  0
  2  3  1  0
  3  4  2  0
  4  5  1  0
  5  6  1  0
  6  7  1  0
  7  8  1  0
  8  9  2  0
  9  3  1  0
  2 10  1  0
  4 11  1  0
  5 12  1  0
  5 13  1  0
  7 14  1  0
  7 15  1  0
  8 16  1  0
  9 17  1  0
M  END
