
     RDKit          3D

 19 19  0  0  0  0  0  0  0  0999 V2000
   -1.9625    2.5662   -0.3783 O   0  0  0  0  0  0  0  0  0  0  0  0
   -0.8139    2.0895   -0.2854 C   0  0  0  0  0  0  0  0  0  0  0  0
   -0.6114    0.6979    0.0652 C   0  0  0  0  0  0  0  0  0  0  0  0
    0.5559    0.0855    0.1923 C   0  0  0  0  0  0  0  0  0  0  0  0
    1.8955    0.6970    0.0021 C   0  0  0  0  0  0  0  0  0  0  0  0
    2.6123    0.0555   -1.0202 O   0  0  0  0  0  0  0  0  0  0  0  0
    0.3396   -1.3392    0.5607 C   0  0  0  0  0  0  0  0  0  0  0  0
   -1.0322   -1.5650   -0.0969 C   0  0  0  0  0  0  0  0  0  0  0  0
   -1.6984   -0.2772    0.3432 C   0  0  0  0  0  0  0  0  0  0  0  0
    0.0260    2.7302   -0.4705 H   0  0  0  0  0  0  0  0  0  0  0  0
    1.8261    1.7619   -0.2805 H   0  0  0  0  0  0  0  0  0  0  0  0
    2.4909    0.6059    0.9230 H   0  0  0  0  0  0  0  0  0  0  0  0
    1.9685   -0.3081   -1.6959 H   0  0  0  0  0  0  0  0  0  0  0  0
    0.1602   -1.4555    1.6555 H   0  0  0  0  0  0  0  0  0  0  0  0
    1.0970   -2.0120    0.1655 H   0  0  0  0  0  0  0  0  0  0  0  0
   -0.8846   -1.5011   -1.1900 H   0  0  0  0  0  0  0  0  0  0  0  0
   -1.5209   -2.4636    0.2581 H   0  0  0  0  0  0  0  0  0  0  0  0
   -2.6246   -0.0621   -0.1953 H   0  0  0  0  0  0  0  0  0  0  0  0
   -1.8234   -0.3058    1.4472 H   0  0  0  0  0  0  0  0  0  0  0  0
  1  2  2  0
  2  3  1  0
  3  4  2  0
  4  5  1  0
  5  6  1  0
  4  7  1  0
  7  8  1  0
  8  9  1  0
  9  3  1  0
  2 10  1  0
  5 11  1  0
  5 12  1  0
  6 13  1  0
  7 14  1  0
  7 15  1  0
  8 16  1  0
  8 17  1  0
  9 18  1  0
  9 19  1  0
M  END
