
     RDKit          3D

 19 19  0  0  0  0  0  0  0  0999 V2000
   -2.5173   -0.6553   -1.3791 O   0  0  0  0  0  0  0  0  0  0  0  0
   -2.0968   -0.8845   -0.2589 C   0  0  0  0  0  0  0  0  0  0  0  0
   -1.2362    0.0499    0.5092 C   0  0  0  0  0  0  0  0  0  0  0  0
   -0.7659    1.1671   -0.4062 C   0  0  0  0  0  0  0  0  0  0  0  0
    0.6914    1.3730   -0.3547 C   0  0  0  0  0  0  0  0  0  0  0  0
    1.7360    0.5601   -0.3571 C   0  0  0  0  0  0  0  0  0  0  0  0
    1.7249   -0.9104   -0.4177 C   0  0  0  0  0  0  0  0  0  0  0  0
    0.5875   -1.4801    0.1443 O   0  0  0  0  0  0  0  0  0  0  0  0
   -0.0152   -0.6722    1.0806 C   0  0  0  0  0  0  0  0  0  0  0  0
   -2.3720   -1.8272    0.1945 H   0  0  0  0  0  0  0  0  0  0  0  0
   -1.7832    0.4534    1.4033 H   0  0  0  0  0  0  0  0  0  0  0  0
   -1.1349    0.9969   -1.4537 H   0  0  0  0  0  0  0  0  0  0  0  0
   -1.2871    2.0924   -0.0689 H   0  0  0  0  0  0  0  0  0  0  0  0
    1.0073    2.4307   -0.3021 H   0  0  0  0  0  0  0  0  0  0  0  0
    2.7270    1.0206   -0.3090 H   0  0  0  0  0  0  0  0  0  0  0  0
    2.6205   -1.3769    0.0739 H   0  0  0  0  0  0  0  0  0  0  0  0
    1.7638   -1.2365   -1.4808 H   0  0  0  0  0  0  0  0  0  0  0  0
   -0.3390   -1.2307    2.0004 H   0  0  0  0  0  0  0  0  0  0  0  0
    0.6891    0.1295    1.3819 H   0  0  0  0  0  0  0  0  0  0  0  0
  1  2  2  0
  2  3  1  0
  3  4  1  0
  4  5  1  0
  5  6  2  0
  6  7  1  0
  7  8  1  0
  8  9  1  0
  9  3  1  0
  2 10  1  0
  3 11  1  0
  4 12  1  0
  4 13  1  0
  5 14  1  0
  6 15  1  0
  7 16  1  0
  7 17  1  0
  9 18  1  0
  9 19  1  0
M  END
