
     RDKit          3D

 17 18  0  0  0  0  0  0  0  0999 V2000
    3.6449    0.2295    0.3295 O   0  0  0  0  0  0  0  0  0  0  0  0
    2.5227   -0.2089    0.3648 C   0  0  0  0  0  0  0  0  0  0  0  0
    1.5992    0.0289   -0.7536 C   0  0  0  0  0  0  0  0  0  0  0  0
    0.2345   -0.6236   -0.4827 C   0  0  0  0  0  0  0  0  0  0  0  0
   -0.5128   -0.2254    0.6530 C   0  0  0  0  0  0  0  0  0  0  0  0
   -2.0446   -0.1317    0.7675 C   0  0  0  0  0  0  0  0  0  0  0  0
   -1.7155    1.1048   -0.0504 C   0  0  0  0  0  0  0  0  0  0  0  0
   -2.0165    2.2442    0.0531 O   0  0  0  0  0  0  0  0  0  0  0  0
   -0.9590    0.0967   -0.8377 C   0  0  0  0  0  0  0  0  0  0  0  0
    2.2006   -0.7734    1.2159 H   0  0  0  0  0  0  0  0  0  0  0  0
    2.0596   -0.3559   -1.6712 H   0  0  0  0  0  0  0  0  0  0  0  0
    1.4393    1.1293   -0.9271 H   0  0  0  0  0  0  0  0  0  0  0  0
    0.3360   -1.7454   -0.6294 H   0  0  0  0  0  0  0  0  0  0  0  0
   -0.1077    0.6858    1.1994 H   0  0  0  0  0  0  0  0  0  0  0  0
   -2.3689    0.0742    1.7861 H   0  0  0  0  0  0  0  0  0  0  0  0
   -2.5450   -0.9264    0.2153 H   0  0  0  0  0  0  0  0  0  0  0  0
   -1.7667   -0.6027   -1.2325 H   0  0  0  0  0  0  0  0  0  0  0  0
  1  2  2  0
  2  3  1  0
  3  4  1  0
  4  5  1  0
  5  6  1  0
  6  7  1  0
  7  8  2  0
  7  9  1  0
  9  4  1  0
  9  5  1  0
  2 10  1  0
  3 11  1  0
  3 12  1  0
  4 13  1  0
  5 14  1  0
  6 15  1  0
  6 16  1  0
  9 17  1  0
M  END
