
     RDKit          3D

 19 18  0  0  0  0  0  0  0  0999 V2000
    3.8300   -0.6401    1.0553 O   0  0  0  0  0  0  0  0  0  0  0  0
    3.2098   -0.2338    0.0600 C   0  0  0  0  0  0  0  0  0  0  0  0
    1.9205    0.4359    0.2001 C   0  0  0  0  0  0  0  0  0  0  0  0
    0.7320   -0.4160   -0.1811 C   0  0  0  0  0  0  0  0  0  0  0  0
   -0.5044    0.4572    0.0509 C   0  0  0  0  0  0  0  0  0  0  0  0
   -1.7437   -0.3043   -0.3497 C   0  0  0  0  0  0  0  0  0  0  0  0
   -1.8854   -1.4692    0.3906 O   0  0  0  0  0  0  0  0  0  0  0  0
   -2.9376    0.5624   -0.3284 C   0  0  0  0  0  0  0  0  0  0  0  0
   -3.9767    0.2383    0.2446 O   0  0  0  0  0  0  0  0  0  0  0  0
    3.7125   -0.4211   -0.8976 H   0  0  0  0  0  0  0  0  0  0  0  0
    1.8993    1.3272   -0.4571 H   0  0  0  0  0  0  0  0  0  0  0  0
    1.7691    0.6976    1.2862 H   0  0  0  0  0  0  0  0  0  0  0  0
    0.6279   -1.2762    0.4912 H   0  0  0  0  0  0  0  0  0  0  0  0
    0.7720   -0.7002   -1.2570 H   0  0  0  0  0  0  0  0  0  0  0  0
   -0.5015    0.6995    1.1297 H   0  0  0  0  0  0  0  0  0  0  0  0
   -0.3578    1.3717   -0.5359 H   0  0  0  0  0  0  0  0  0  0  0  0
   -1.5913   -0.6481   -1.4130 H   0  0  0  0  0  0  0  0  0  0  0  0
   -2.0337   -1.2245    1.3396 H   0  0  0  0  0  0  0  0  0  0  0  0
   -2.9409    1.5437   -0.8283 H   0  0  0  0  0  0  0  0  0  0  0  0
  1  2  2  0
  2  3  1  0
  3  4  1  0
  4  5  1  0
  5  6  1  0
  6  7  1  0
  6  8  1  0
  8  9  2  0
  2 10  1  0
  3 11  1  0
  3 12  1  0
  4 13  1  0
  4 14  1  0
  5 15  1  0
  5 16  1  0
  6 17  1  0
  7 18  1  0
  8 19  1  0
M  END
