
     RDKit          3D

 19 20  0  0  0  0  0  0  0  0999 V2000
    2.2075    1.6615   -0.8159 O   0  0  0  0  0  0  0  0  0  0  0  0
    1.8659    1.2749    0.2849 C   0  0  0  0  0  0  0  0  0  0  0  0
    1.5882   -0.1699    0.4728 C   0  0  0  0  0  0  0  0  0  0  0  0
    0.1162   -0.3829    0.3860 C   0  0  0  0  0  0  0  0  0  0  0  0
   -0.4136   -1.7490    0.5424 C   0  0  0  0  0  0  0  0  0  0  0  0
   -0.4868   -1.1549   -0.8012 C   0  0  0  0  0  0  0  0  0  0  0  0
   -1.5579   -0.1017   -0.9760 C   0  0  0  0  0  0  0  0  0  0  0  0
   -0.7115    0.7712   -0.0719 C   0  0  0  0  0  0  0  0  0  0  0  0
   -1.4123    1.3602    0.9769 O   0  0  0  0  0  0  0  0  0  0  0  0
    1.7751    1.9806    1.0905 H   0  0  0  0  0  0  0  0  0  0  0  0
    2.0753   -0.7507   -0.3419 H   0  0  0  0  0  0  0  0  0  0  0  0
    1.9000   -0.5107    1.4831 H   0  0  0  0  0  0  0  0  0  0  0  0
    0.3139   -2.5428    0.7094 H   0  0  0  0  0  0  0  0  0  0  0  0
   -1.3946   -1.9402    1.0530 H   0  0  0  0  0  0  0  0  0  0  0  0
    0.1947   -1.4034   -1.6195 H   0  0  0  0  0  0  0  0  0  0  0  0
   -1.6705    0.2651   -2.0097 H   0  0  0  0  0  0  0  0  0  0  0  0
   -2.5072   -0.3888   -0.4730 H   0  0  0  0  0  0  0  0  0  0  0  0
   -0.1719    1.5116   -0.7003 H   0  0  0  0  0  0  0  0  0  0  0  0
   -1.7104    2.2697    0.8103 H   0  0  0  0  0  0  0  0  0  0  0  0
  1  2  2  0
  2  3  1  0
  3  4  1  0
  4  5  1  0
  5  6  1  0
  6  7  1  0
  7  8  1  0
  8  9  1  0
  6  4  1  0
  8  4  1  0
  2 10  1  0
  3 11  1  0
  3 12  1  0
  5 13  1  0
  5 14  1  0
  6 15  1  0
  7 16  1  0
  7 17  1  0
  8 18  1  0
  9 19  1  0
M  END
