
     RDKit          3D

 17 19  0  0  0  0  0  0  0  0999 V2000
    2.8974   -0.6565    0.7137 O   0  0  0  0  0  0  0  0  0  0  0  0
    2.1620   -0.3694   -0.2073 C   0  0  0  0  0  0  0  0  0  0  0  0
    0.7674   -0.0666    0.0417 C   0  0  0  0  0  0  0  0  0  0  0  0
    0.3206    0.8837    1.1023 C   0  0  0  0  0  0  0  0  0  0  0  0
   -0.9626    1.0857    0.2784 C   0  0  0  0  0  0  0  0  0  0  0  0
   -1.8676    0.1136    0.6111 O   0  0  0  0  0  0  0  0  0  0  0  0
   -1.5468   -1.0673    0.0163 C   0  0  0  0  0  0  0  0  0  0  0  0
   -0.2478   -0.8736   -0.7292 C   0  0  0  0  0  0  0  0  0  0  0  0
   -0.1518    0.5769   -0.8799 C   0  0  0  0  0  0  0  0  0  0  0  0
    2.5950   -0.3532   -1.1936 H   0  0  0  0  0  0  0  0  0  0  0  0
    0.1025    0.4672    2.0931 H   0  0  0  0  0  0  0  0  0  0  0  0
    0.8412    1.8791    1.1106 H   0  0  0  0  0  0  0  0  0  0  0  0
   -1.3162    2.1141    0.2246 H   0  0  0  0  0  0  0  0  0  0  0  0
   -2.3612   -1.3553   -0.6800 H   0  0  0  0  0  0  0  0  0  0  0  0
   -1.3941   -1.9205    0.7031 H   0  0  0  0  0  0  0  0  0  0  0  0
    0.1014   -1.5947   -1.4471 H   0  0  0  0  0  0  0  0  0  0  0  0
    0.0604    1.1368   -1.7579 H   0  0  0  0  0  0  0  0  0  0  0  0
  1  2  2  0
  2  3  1  0
  3  4  1  0
  4  5  1  0
  5  6  1  0
  6  7  1  0
  7  8  1  0
  8  9  1  0
  8  3  1  0
  9  3  1  0
  9  5  1  0
  2 10  1  0
  4 11  1  0
  4 12  1  0
  5 13  1  0
  7 14  1  0
  7 15  1  0
  8 16  1  0
  9 17  1  0
M  END
