
     RDKit          3D

 19 20  0  0  0  0  0  0  0  0999 V2000
    2.5350   -1.8088   -0.7495 O   0  0  0  0  0  0  0  0  0  0  0  0
    2.3075   -0.7111   -0.2963 C   0  0  0  0  0  0  0  0  0  0  0  0
    1.0122   -0.4207    0.3027 C   0  0  0  0  0  0  0  0  0  0  0  0
    0.8380    0.9739    0.7480 C   0  0  0  0  0  0  0  0  0  0  0  0
   -0.4129    1.3741    0.9722 C   0  0  0  0  0  0  0  0  0  0  0  0
   -1.4629    0.6805    0.1631 C   0  0  0  0  0  0  0  0  0  0  0  0
   -0.8213    0.4230   -1.2012 C   0  0  0  0  0  0  0  0  0  0  0  0
   -0.1612   -0.7872   -0.5592 C   0  0  0  0  0  0  0  0  0  0  0  0
   -1.3765   -0.8116    0.3830 C   0  0  0  0  0  0  0  0  0  0  0  0
    3.0702    0.0444   -0.3409 H   0  0  0  0  0  0  0  0  0  0  0  0
    0.9247   -1.0575    1.2324 H   0  0  0  0  0  0  0  0  0  0  0  0
    1.6916    1.6586    0.8913 H   0  0  0  0  0  0  0  0  0  0  0  0
   -0.6707    2.1483    1.6881 H   0  0  0  0  0  0  0  0  0  0  0  0
   -2.4473    1.1297    0.1497 H   0  0  0  0  0  0  0  0  0  0  0  0
   -1.5506    0.0769   -1.9461 H   0  0  0  0  0  0  0  0  0  0  0  0
   -0.1229    1.2123   -1.5233 H   0  0  0  0  0  0  0  0  0  0  0  0
   -0.0631   -1.6572   -1.2027 H   0  0  0  0  0  0  0  0  0  0  0  0
   -1.0903   -1.1342    1.3945 H   0  0  0  0  0  0  0  0  0  0  0  0
   -2.1996   -1.3336   -0.1058 H   0  0  0  0  0  0  0  0  0  0  0  0
  1  2  2  0
  2  3  1  0
  3  4  1  0
  4  5  2  0
  5  6  1  0
  6  7  1  0
  7  8  1  0
  8  9  1  0
  8  3  1  0
  9  6  1  0
  2 10  1  0
  3 11  1  0
  4 12  1  0
  5 13  1  0
  6 14  1  0
  7 15  1  0
  7 16  1  0
  8 17  1  0
  9 18  1  0
  9 19  1  0
M  END
