
     RDKit          3D

 15 14  0  0  0  0  0  0  0  0999 V2000
    1.6529    0.4129   -1.7019 O   0  0  0  0  0  0  0  0  0  0  0  0
    1.9593   -0.0128   -0.5722 C   0  0  0  0  0  0  0  0  0  0  0  0
    0.9912   -0.7952    0.1940 C   0  0  0  0  0  0  0  0  0  0  0  0
   -0.3186   -0.0460    0.4110 C   0  0  0  0  0  0  0  0  0  0  0  0
   -0.0551    1.2146    1.1601 C   0  0  0  0  0  0  0  0  0  0  0  0
    0.4431    1.1913    2.2851 O   0  0  0  0  0  0  0  0  0  0  0  0
   -0.8974    0.3023   -0.8283 O   0  0  0  0  0  0  0  0  0  0  0  0
   -2.1543   -0.1956   -1.1036 C   0  0  0  0  0  0  0  0  0  0  0  0
   -2.7145   -0.9274   -0.2604 O   0  0  0  0  0  0  0  0  0  0  0  0
    2.9402    0.2256   -0.2177 H   0  0  0  0  0  0  0  0  0  0  0  0
    0.7223   -1.7651   -0.3052 H   0  0  0  0  0  0  0  0  0  0  0  0
    1.3780   -1.0801    1.1807 H   0  0  0  0  0  0  0  0  0  0  0  0
   -0.9794   -0.7065    1.0330 H   0  0  0  0  0  0  0  0  0  0  0  0
   -0.2884    2.1599    0.7491 H   0  0  0  0  0  0  0  0  0  0  0  0
   -2.6792    0.0221   -2.0238 H   0  0  0  0  0  0  0  0  0  0  0  0
  1  2  2  0
  2  3  1  0
  3  4  1  0
  4  5  1  0
  5  6  2  0
  4  7  1  0
  7  8  1  0
  8  9  2  0
  2 10  1  0
  3 11  1  0
  3 12  1  0
  4 13  1  0
  5 14  1  0
  8 15  1  0
M  END
