
     RDKit          3D

 19 20  0  0  0  0  0  0  0  0999 V2000
    4.1624   -0.0927   -0.8656 O   0  0  0  0  0  0  0  0  0  0  0  0
    3.1725    0.3289   -0.2870 C   0  0  0  0  0  0  0  0  0  0  0  0
    1.8033   -0.2159   -0.5792 C   0  0  0  0  0  0  0  0  0  0  0  0
    0.8999    0.4332    0.2049 O   0  0  0  0  0  0  0  0  0  0  0  0
   -0.3263    0.2034    0.1932 C   0  0  0  0  0  0  0  0  0  0  0  0
   -1.4030    0.8424    0.9975 C   0  0  0  0  0  0  0  0  0  0  0  0
   -2.1529   -0.1412    0.1415 C   0  0  0  0  0  0  0  0  0  0  0  0
   -1.2747    0.3177   -0.9865 C   0  0  0  0  0  0  0  0  0  0  0  0
   -1.0361   -1.1013    0.4731 C   0  0  0  0  0  0  0  0  0  0  0  0
    3.3443    1.1139    0.4437 H   0  0  0  0  0  0  0  0  0  0  0  0
    1.5901    0.0006   -1.6548 H   0  0  0  0  0  0  0  0  0  0  0  0
    1.8488   -1.3172   -0.3896 H   0  0  0  0  0  0  0  0  0  0  0  0
   -1.6404    1.8882    0.8124 H   0  0  0  0  0  0  0  0  0  0  0  0
   -1.3910    0.5000    2.0446 H   0  0  0  0  0  0  0  0  0  0  0  0
   -3.1325   -0.3283    0.1308 H   0  0  0  0  0  0  0  0  0  0  0  0
   -1.4447    1.3438   -1.3581 H   0  0  0  0  0  0  0  0  0  0  0  0
   -1.0799   -0.4505   -1.7424 H   0  0  0  0  0  0  0  0  0  0  0  0
   -0.9201   -1.8868   -0.2929 H   0  0  0  0  0  0  0  0  0  0  0  0
   -1.0196   -1.4382    1.5281 H   0  0  0  0  0  0  0  0  0  0  0  0
  1  2  2  0
  2  3  1  0
  3  4  1  0
  4  5  1  0
  5  6  1  0
  6  7  1  0
  7  8  1  0
  7  9  1  0
  8  5  1  0
  9  5  1  0
  2 10  1  0
  3 11  1  0
  3 12  1  0
  6 13  1  0
  6 14  1  0
  7 15  1  0
  8 16  1  0
  8 17  1  0
  9 18  1  0
  9 19  1  0
M  END
