
     RDKit          3D

 19 19  0  0  0  0  0  0  0  0999 V2000
   -2.9924    0.7326   -0.8155 O   0  0  0  0  0  0  0  0  0  0  0  0
   -2.5506    0.1452    0.1566 C   0  0  0  0  0  0  0  0  0  0  0  0
   -1.4405   -0.8353    0.0279 C   0  0  0  0  0  0  0  0  0  0  0  0
   -0.1072   -0.2010    0.3577 C   0  0  0  0  0  0  0  0  0  0  0  0
    1.0420   -1.1419    0.2299 C   0  0  0  0  0  0  0  0  0  0  0  0
    2.0882   -0.5609   -0.5122 O   0  0  0  0  0  0  0  0  0  0  0  0
    2.2510    0.7324   -0.0076 C   0  0  0  0  0  0  0  0  0  0  0  0
    1.2890    1.5680   -0.5261 O   0  0  0  0  0  0  0  0  0  0  0  0
    0.0045    1.0508   -0.4745 C   0  0  0  0  0  0  0  0  0  0  0  0
   -3.0259    0.3932    1.1173 H   0  0  0  0  0  0  0  0  0  0  0  0
   -1.6019   -1.6498    0.7768 H   0  0  0  0  0  0  0  0  0  0  0  0
   -1.4655   -1.2988   -0.9815 H   0  0  0  0  0  0  0  0  0  0  0  0
   -0.1873    0.1218    1.4289 H   0  0  0  0  0  0  0  0  0  0  0  0
    0.7902   -2.0983   -0.2464 H   0  0  0  0  0  0  0  0  0  0  0  0
    1.4858   -1.3713    1.2221 H   0  0  0  0  0  0  0  0  0  0  0  0
    2.1833    0.7462    1.1073 H   0  0  0  0  0  0  0  0  0  0  0  0
    3.2478    1.0709   -0.3585 H   0  0  0  0  0  0  0  0  0  0  0  0
   -0.3173    0.8077   -1.5049 H   0  0  0  0  0  0  0  0  0  0  0  0
   -0.6931    1.7884    0.0059 H   0  0  0  0  0  0  0  0  0  0  0  0
  1  2  2  0
  2  3  1  0
  3  4  1  0
  4  5  1  0
  5  6  1  0
  6  7  1  0
  7  8  1  0
  8  9  1  0
  9  4  1  0
  2 10  1  0
  3 11  1  0
  3 12  1  0
  4 13  1  0
  5 14  1  0
  5 15  1  0
  7 16  1  0
  7 17  1  0
  9 18  1  0
  9 19  1  0
M  END
