
     RDKit          3D

 19 19  0  0  0  0  0  0  0  0999 V2000
   -0.2992   -2.2802    1.3582 O   0  0  0  0  0  0  0  0  0  0  0  0
    0.3781   -1.2660    1.3206 C   0  0  0  0  0  0  0  0  0  0  0  0
    0.3361   -0.4243    0.1053 C   0  0  0  0  0  0  0  0  0  0  0  0
    1.6866   -0.3138   -0.5672 C   0  0  0  0  0  0  0  0  0  0  0  0
    2.6583    0.2349    0.2083 O   0  0  0  0  0  0  0  0  0  0  0  0
   -0.1993    0.9404    0.4703 C   0  0  0  0  0  0  0  0  0  0  0  0
   -1.6869    0.7407    0.1499 C   0  0  0  0  0  0  0  0  0  0  0  0
   -1.5737   -0.1611   -1.0422 C   0  0  0  0  0  0  0  0  0  0  0  0
   -0.5162   -0.9907   -0.8027 O   0  0  0  0  0  0  0  0  0  0  0  0
    0.9815   -1.0355    2.1928 H   0  0  0  0  0  0  0  0  0  0  0  0
    1.5141    0.2836   -1.5021 H   0  0  0  0  0  0  0  0  0  0  0  0
    2.0095   -1.3151   -0.9206 H   0  0  0  0  0  0  0  0  0  0  0  0
    2.9297    1.1524   -0.0498 H   0  0  0  0  0  0  0  0  0  0  0  0
   -0.0572    1.2054    1.5164 H   0  0  0  0  0  0  0  0  0  0  0  0
    0.1419    1.7352   -0.2187 H   0  0  0  0  0  0  0  0  0  0  0  0
   -2.1985    1.6822   -0.0330 H   0  0  0  0  0  0  0  0  0  0  0  0
   -2.1992    0.2044    0.9691 H   0  0  0  0  0  0  0  0  0  0  0  0
   -1.4201    0.4233   -1.9820 H   0  0  0  0  0  0  0  0  0  0  0  0
   -2.4855   -0.8158   -1.1726 H   0  0  0  0  0  0  0  0  0  0  0  0
  1  2  2  0
  2  3  1  0
  3  4  1  0
  4  5  1  0
  3  6  1  0
  6  7  1  0
  7  8  1  0
  8  9  1  0
  9  3  1  0
  2 10  1  0
  4 11  1  0
  4 12  1  0
  5 13  1  0
  6 14  1  0
  6 15  1  0
  7 16  1  0
  7 17  1  0
  8 18  1  0
  8 19  1  0
M  END
