
     RDKit          3D

 19 19  0  0  0  0  0  0  0  0999 V2000
   -0.3688    0.7342   -2.8499 O   0  0  0  0  0  0  0  0  0  0  0  0
   -1.1004    0.7972   -1.8817 C   0  0  0  0  0  0  0  0  0  0  0  0
   -0.6119    0.1852   -0.5912 C   0  0  0  0  0  0  0  0  0  0  0  0
   -1.5778    0.3104    0.5451 C   0  0  0  0  0  0  0  0  0  0  0  0
   -1.1082   -0.2583    1.7170 O   0  0  0  0  0  0  0  0  0  0  0  0
    0.0697   -1.1700   -0.6923 C   0  0  0  0  0  0  0  0  0  0  0  0
    0.8359    0.0717   -0.4274 C   0  0  0  0  0  0  0  0  0  0  0  0
    1.5345    0.2239    0.8970 C   0  0  0  0  0  0  0  0  0  0  0  0
    2.9256    0.0636    0.7399 O   0  0  0  0  0  0  0  0  0  0  0  0
   -2.0520    1.2731   -1.9611 H   0  0  0  0  0  0  0  0  0  0  0  0
   -1.8968    1.3544    0.7369 H   0  0  0  0  0  0  0  0  0  0  0  0
   -2.5108   -0.2422    0.2490 H   0  0  0  0  0  0  0  0  0  0  0  0
   -1.4765   -1.1830    1.8651 H   0  0  0  0  0  0  0  0  0  0  0  0
   -0.0778   -1.9013    0.1248 H   0  0  0  0  0  0  0  0  0  0  0  0
    0.0264   -1.6217   -1.6947 H   0  0  0  0  0  0  0  0  0  0  0  0
    1.4748    0.4073   -1.2869 H   0  0  0  0  0  0  0  0  0  0  0  0
    1.3837    1.2654    1.2372 H   0  0  0  0  0  0  0  0  0  0  0  0
    1.2059   -0.5346    1.6451 H   0  0  0  0  0  0  0  0  0  0  0  0
    3.3245    0.2246    1.6281 H   0  0  0  0  0  0  0  0  0  0  0  0
  1  2  2  0
  2  3  1  0
  3  4  1  0
  4  5  1  0
  3  6  1  0
  6  7  1  0
  7  8  1  0
  8  9  1  0
  7  3  1  0
  2 10  1  0
  4 11  1  0
  4 12  1  0
  5 13  1  0
  6 14  1  0
  6 15  1  0
  7 16  1  0
  8 17  1  0
  8 18  1  0
  9 19  1  0
M  END
