
     RDKit          3D

 17 18  0  0  0  0  0  0  0  0999 V2000
    2.4286   -1.5129   -0.0325 O   0  0  0  0  0  0  0  0  0  0  0  0
    2.4682   -0.3428   -0.4203 C   0  0  0  0  0  0  0  0  0  0  0  0
    1.6534    0.7447    0.1290 C   0  0  0  0  0  0  0  0  0  0  0  0
    0.1941    0.4828    0.1375 C   0  0  0  0  0  0  0  0  0  0  0  0
   -0.8147    1.1557   -0.4379 C   0  0  0  0  0  0  0  0  0  0  0  0
   -1.9920    0.3425    0.0484 C   0  0  0  0  0  0  0  0  0  0  0  0
   -1.5819   -1.0788   -0.2204 C   0  0  0  0  0  0  0  0  0  0  0  0
   -0.5475   -0.6314    0.7865 C   0  0  0  0  0  0  0  0  0  0  0  0
   -1.6117    0.0973    1.3678 O   0  0  0  0  0  0  0  0  0  0  0  0
    3.1937   -0.1726   -1.2398 H   0  0  0  0  0  0  0  0  0  0  0  0
    1.9032    1.6860   -0.4341 H   0  0  0  0  0  0  0  0  0  0  0  0
    2.0076    0.9601    1.1777 H   0  0  0  0  0  0  0  0  0  0  0  0
   -0.8022    2.0322   -1.0835 H   0  0  0  0  0  0  0  0  0  0  0  0
   -2.9683    0.6748   -0.1700 H   0  0  0  0  0  0  0  0  0  0  0  0
   -2.3185   -1.7631    0.2337 H   0  0  0  0  0  0  0  0  0  0  0  0
   -1.1822   -1.3220   -1.1983 H   0  0  0  0  0  0  0  0  0  0  0  0
   -0.0297   -1.3525    1.3561 H   0  0  0  0  0  0  0  0  0  0  0  0
  1  2  2  0
  2  3  1  0
  3  4  1  0
  4  5  2  0
  5  6  1  0
  6  7  1  0
  7  8  1  0
  8  9  1  0
  8  4  1  0
  9  6  1  0
  2 10  1  0
  3 11  1  0
  3 12  1  0
  5 13  1  0
  6 14  1  0
  7 15  1  0
  7 16  1  0
  8 17  1  0
M  END
