
     RDKit          3D

 19 19  0  0  0  0  0  0  0  0999 V2000
    2.5614    1.6623    1.0075 O   0  0  0  0  0  0  0  0  0  0  0  0
    2.8511    0.5177    0.7489 C   0  0  0  0  0  0  0  0  0  0  0  0
    1.9204   -0.5146    0.3431 C   0  0  0  0  0  0  0  0  0  0  0  0
    0.4820   -0.1319    0.2353 C   0  0  0  0  0  0  0  0  0  0  0  0
   -0.1340    1.0137    0.4468 C   0  0  0  0  0  0  0  0  0  0  0  0
   -1.6273    0.8871    0.1942 C   0  0  0  0  0  0  0  0  0  0  0  0
   -1.5729   -0.2398   -0.8499 C   0  0  0  0  0  0  0  0  0  0  0  0
   -2.7960   -0.8126   -1.0630 O   0  0  0  0  0  0  0  0  0  0  0  0
   -0.5810   -1.1328   -0.1531 C   0  0  0  0  0  0  0  0  0  0  0  0
    3.9154    0.2823    0.8413 H   0  0  0  0  0  0  0  0  0  0  0  0
    2.0146   -1.4314    0.9755 H   0  0  0  0  0  0  0  0  0  0  0  0
    2.2288   -0.8663   -0.6847 H   0  0  0  0  0  0  0  0  0  0  0  0
    0.3581    1.9366    0.7623 H   0  0  0  0  0  0  0  0  0  0  0  0
   -2.1811    0.6163    1.0871 H   0  0  0  0  0  0  0  0  0  0  0  0
   -1.9173    1.8169   -0.3133 H   0  0  0  0  0  0  0  0  0  0  0  0
   -1.0787    0.1589   -1.7483 H   0  0  0  0  0  0  0  0  0  0  0  0
   -3.2621   -0.2598   -1.7637 H   0  0  0  0  0  0  0  0  0  0  0  0
   -1.0173   -1.5996    0.7732 H   0  0  0  0  0  0  0  0  0  0  0  0
   -0.1641   -1.9029   -0.8392 H   0  0  0  0  0  0  0  0  0  0  0  0
  1  2  2  0
  2  3  1  0
  3  4  1  0
  4  5  2  0
  5  6  1  0
  6  7  1  0
  7  8  1  0
  7  9  1  0
  9  4  1  0
  2 10  1  0
  3 11  1  0
  3 12  1  0
  5 13  1  0
  6 14  1  0
  6 15  1  0
  7 16  1  0
  8 17  1  0
  9 18  1  0
  9 19  1  0
M  END
