
     RDKit          3D

 13 13  0  0  0  0  0  0  0  0999 V2000
    1.0023   -0.4366   -1.7676 O   0  0  0  0  0  0  0  0  0  0  0  0
    1.4847   -0.4391   -0.6733 C   0  0  0  0  0  0  0  0  0  0  0  0
    0.6853   -0.1993    0.5652 C   0  0  0  0  0  0  0  0  0  0  0  0
   -0.4922    0.7473    0.4941 C   0  0  0  0  0  0  0  0  0  0  0  0
   -0.5017    1.5128   -0.6678 O   0  0  0  0  0  0  0  0  0  0  0  0
   -0.7259   -0.7064    0.4513 C   0  0  0  0  0  0  0  0  0  0  0  0
   -1.1919   -1.1851   -0.7641 O   0  0  0  0  0  0  0  0  0  0  0  0
    2.5357   -0.6194   -0.5526 H   0  0  0  0  0  0  0  0  0  0  0  0
    1.1874   -0.2155    1.5299 H   0  0  0  0  0  0  0  0  0  0  0  0
   -0.7938    1.2890    1.4042 H   0  0  0  0  0  0  0  0  0  0  0  0
    0.0291    2.3413   -0.4615 H   0  0  0  0  0  0  0  0  0  0  0  0
   -1.1008   -1.2355    1.3247 H   0  0  0  0  0  0  0  0  0  0  0  0
   -2.1182   -0.8535   -0.8824 H   0  0  0  0  0  0  0  0  0  0  0  0
  1  2  2  0
  2  3  1  0
  3  4  1  0
  4  5  1  0
  4  6  1  0
  6  7  1  0
  6  3  1  0
  2  8  1  0
  3  9  1  0
  4 10  1  0
  5 11  1  0
  6 12  1  0
  7 13  1  0
M  END
