
     RDKit          3D

 17 17  0  0  0  0  0  0  0  0999 V2000
    2.4460    0.9072   -1.2515 O   0  0  0  0  0  0  0  0  0  0  0  0
    1.6385    0.9162   -0.3494 C   0  0  0  0  0  0  0  0  0  0  0  0
    0.5766   -0.0609   -0.2907 C   0  0  0  0  0  0  0  0  0  0  0  0
    0.6499   -0.9359   -1.3689 O   0  0  0  0  0  0  0  0  0  0  0  0
    0.5276   -0.8849    0.9642 C   0  0  0  0  0  0  0  0  0  0  0  0
   -0.7763   -1.2756    1.1744 O   0  0  0  0  0  0  0  0  0  0  0  0
   -1.5694   -0.7342    0.1931 C   0  0  0  0  0  0  0  0  0  0  0  0
   -0.8235    0.5332   -0.2545 C   0  0  0  0  0  0  0  0  0  0  0  0
   -0.9773    1.4493    0.7620 O   0  0  0  0  0  0  0  0  0  0  0  0
    1.7405    1.6763    0.4043 H   0  0  0  0  0  0  0  0  0  0  0  0
    0.1738   -0.5576   -2.1301 H   0  0  0  0  0  0  0  0  0  0  0  0
    0.9307   -0.3140    1.8351 H   0  0  0  0  0  0  0  0  0  0  0  0
    1.1666   -1.7921    0.8624 H   0  0  0  0  0  0  0  0  0  0  0  0
   -2.5751   -0.4968    0.5726 H   0  0  0  0  0  0  0  0  0  0  0  0
   -1.6593   -1.4067   -0.7104 H   0  0  0  0  0  0  0  0  0  0  0  0
   -1.1884    0.8484   -1.2268 H   0  0  0  0  0  0  0  0  0  0  0  0
   -0.2810    2.1282    0.8141 H   0  0  0  0  0  0  0  0  0  0  0  0
  1  2  2  0
  2  3  1  0
  3  4  1  0
  3  5  1  0
  5  6  1  0
  6  7  1  0
  7  8  1  0
  8  9  1  0
  8  3  1  0
  2 10  1  0
  4 11  1  0
  5 12  1  0
  5 13  1  0
  7 14  1  0
  7 15  1  0
  8 16  1  0
  9 17  1  0
M  END
