
     RDKit          3D

 17 18  0  0  0  0  0  0  0  0999 V2000
    1.8794    1.8200    0.0492 O   0  0  0  0  0  0  0  0  0  0  0  0
    1.8632    0.6383   -0.2549 C   0  0  0  0  0  0  0  0  0  0  0  0
    0.5732    0.0094   -0.6959 C   0  0  0  0  0  0  0  0  0  0  0  0
    0.5998   -1.4147   -0.1791 C   0  0  0  0  0  0  0  0  0  0  0  0
   -0.2486   -1.4987    0.8840 O   0  0  0  0  0  0  0  0  0  0  0  0
   -0.4998   -0.2180    1.3586 C   0  0  0  0  0  0  0  0  0  0  0  0
   -0.5540    0.5782    0.1058 C   0  0  0  0  0  0  0  0  0  0  0  0
   -1.8755    0.7742   -0.5759 C   0  0  0  0  0  0  0  0  0  0  0  0
   -1.0335    1.8186   -0.0143 O   0  0  0  0  0  0  0  0  0  0  0  0
    2.7827    0.0622   -0.2012 H   0  0  0  0  0  0  0  0  0  0  0  0
    0.4414    0.0786   -1.7808 H   0  0  0  0  0  0  0  0  0  0  0  0
    1.6256   -1.7450    0.0959 H   0  0  0  0  0  0  0  0  0  0  0  0
    0.1990   -2.0497   -1.0191 H   0  0  0  0  0  0  0  0  0  0  0  0
   -1.4643   -0.1405    1.8810 H   0  0  0  0  0  0  0  0  0  0  0  0
    0.3531    0.0685    2.0086 H   0  0  0  0  0  0  0  0  0  0  0  0
   -1.8934    0.7256   -1.6778 H   0  0  0  0  0  0  0  0  0  0  0  0
   -2.7481    0.4930    0.0159 H   0  0  0  0  0  0  0  0  0  0  0  0
  1  2  2  0
  2  3  1  0
  3  4  1  0
  4  5  1  0
  5  6  1  0
  6  7  1  0
  7  8  1  0
  8  9  1  0
  7  3  1  0
  9  7  1  0
  2 10  1  0
  3 11  1  0
  4 12  1  0
  4 13  1  0
  6 14  1  0
  6 15  1  0
  8 16  1  0
  8 17  1  0
M  END
