
     RDKit          3D

 18 18  0  0  0  0  0  0  0  0999 V2000
    3.5314    0.2022    0.5583 O   0  0  0  0  0  0  0  0  0  0  0  0
    2.4472    0.3312    0.0399 C   0  0  0  0  0  0  0  0  0  0  0  0
    1.3495   -0.5574    0.4899 C   0  0  0  0  0  0  0  0  0  0  0  0
    0.1145   -0.2367   -0.2680 C   0  0  0  0  0  0  0  0  0  0  0  0
   -0.2887    1.2146   -0.0311 C   0  0  0  0  0  0  0  0  0  0  0  0
   -1.6968    0.7302    0.2045 C   0  0  0  0  0  0  0  0  0  0  0  0
   -1.1857   -0.6713    0.3798 C   0  0  0  0  0  0  0  0  0  0  0  0
   -1.9443   -1.5421   -0.4263 O   0  0  0  0  0  0  0  0  0  0  0  0
    2.2380    1.0578   -0.7314 H   0  0  0  0  0  0  0  0  0  0  0  0
    1.6343   -1.6280    0.4638 H   0  0  0  0  0  0  0  0  0  0  0  0
    1.2125   -0.3329    1.5890 H   0  0  0  0  0  0  0  0  0  0  0  0
    0.1301   -0.5505   -1.3161 H   0  0  0  0  0  0  0  0  0  0  0  0
   -0.1244    1.7839   -0.9650 H   0  0  0  0  0  0  0  0  0  0  0  0
    0.1302    1.6286    0.8841 H   0  0  0  0  0  0  0  0  0  0  0  0
   -2.3050    0.9070   -0.7024 H   0  0  0  0  0  0  0  0  0  0  0  0
   -2.1920    1.1133    1.1047 H   0  0  0  0  0  0  0  0  0  0  0  0
   -1.0802   -0.9946    1.4294 H   0  0  0  0  0  0  0  0  0  0  0  0
   -1.9707   -2.4554   -0.0415 H   0  0  0  0  0  0  0  0  0  0  0  0
  1  2  2  0
  2  3  1  0
  3  4  1  0
  4  5  1  0
  5  6  1  0
  6  7  1  0
  7  8  1  0
  7  4  1  0
  2  9  1  0
  3 10  1  0
  3 11  1  0
  4 12  1  0
  5 13  1  0
  5 14  1  0
  6 15  1  0
  6 16  1  0
  7 17  1  0
  8 18  1  0
M  END
