
     RDKit          3D

 17 18  0  0  0  0  0  0  0  0999 V2000
    1.7322   -1.7623   -0.2568 O   0  0  0  0  0  0  0  0  0  0  0  0
    2.2788   -0.6817    0.0170 C   0  0  0  0  0  0  0  0  0  0  0  0
    1.4879    0.5616   -0.0080 C   0  0  0  0  0  0  0  0  0  0  0  0
    0.1642    0.4291    0.7203 C   0  0  0  0  0  0  0  0  0  0  0  0
   -0.5138    1.6555    0.6310 O   0  0  0  0  0  0  0  0  0  0  0  0
   -1.1325    1.1652   -0.5173 C   0  0  0  0  0  0  0  0  0  0  0  0
   -0.9121   -0.2103    0.0365 C   0  0  0  0  0  0  0  0  0  0  0  0
   -1.5920   -1.3628   -0.0934 C   0  0  0  0  0  0  0  0  0  0  0  0
   -1.9904   -0.5493    1.0237 O   0  0  0  0  0  0  0  0  0  0  0  0
    3.3518   -0.6560    0.2786 H   0  0  0  0  0  0  0  0  0  0  0  0
    1.2654    0.8034   -1.0855 H   0  0  0  0  0  0  0  0  0  0  0  0
    2.1099    1.4182    0.3537 H   0  0  0  0  0  0  0  0  0  0  0  0
    0.3155    0.2369    1.8164 H   0  0  0  0  0  0  0  0  0  0  0  0
   -2.2284    1.4421   -0.5544 H   0  0  0  0  0  0  0  0  0  0  0  0
   -0.6486    1.3005   -1.4718 H   0  0  0  0  0  0  0  0  0  0  0  0
   -1.2061   -2.3622    0.1201 H   0  0  0  0  0  0  0  0  0  0  0  0
   -2.4818   -1.4280   -0.7851 H   0  0  0  0  0  0  0  0  0  0  0  0
  1  2  2  0
  2  3  1  0
  3  4  1  0
  4  5  1  0
  5  6  1  0
  6  7  1  0
  7  8  1  0
  8  9  1  0
  7  4  1  0
  9  7  1  0
  2 10  1  0
  3 11  1  0
  3 12  1  0
  4 13  1  0
  6 14  1  0
  6 15  1  0
  8 16  1  0
  8 17  1  0
M  END
