
     RDKit          3D

 17 17  0  0  0  0  0  0  0  0999 V2000
   -2.5750   -2.0352   -0.3257 O   0  0  0  0  0  0  0  0  0  0  0  0
   -1.4276   -1.6431   -0.4609 C   0  0  0  0  0  0  0  0  0  0  0  0
   -1.1096   -0.2935    0.0757 C   0  0  0  0  0  0  0  0  0  0  0  0
    0.2934    0.0880   -0.1348 C   0  0  0  0  0  0  0  0  0  0  0  0
    1.4510    0.4189   -0.3233 C   0  0  0  0  0  0  0  0  0  0  0  0
    2.8408    0.8312   -0.5567 C   0  0  0  0  0  0  0  0  0  0  0  0
    3.4747   -0.2022   -1.2036 O   0  0  0  0  0  0  0  0  0  0  0  0
   -2.1112    0.7789    0.1109 C   0  0  0  0  0  0  0  0  0  0  0  0
   -1.7400    0.0235    1.3882 C   0  0  0  0  0  0  0  0  0  0  0  0
   -0.7233   -2.2882   -0.9538 H   0  0  0  0  0  0  0  0  0  0  0  0
    2.8866    1.7867   -1.1435 H   0  0  0  0  0  0  0  0  0  0  0  0
    3.3490    1.0201    0.4106 H   0  0  0  0  0  0  0  0  0  0  0  0
    3.9777   -0.8146   -0.5795 H   0  0  0  0  0  0  0  0  0  0  0  0
   -3.1079    0.6044   -0.3314 H   0  0  0  0  0  0  0  0  0  0  0  0
   -1.7448    1.8159    0.1067 H   0  0  0  0  0  0  0  0  0  0  0  0
   -1.1859    0.5436    2.1699 H   0  0  0  0  0  0  0  0  0  0  0  0
   -2.5480   -0.6342    1.7514 H   0  0  0  0  0  0  0  0  0  0  0  0
  1  2  2  0
  2  3  1  0
  3  4  1  0
  4  5  3  0
  5  6  1  0
  6  7  1  0
  3  8  1  0
  8  9  1  0
  9  3  1  0
  2 10  1  0
  6 11  1  0
  6 12  1  0
  7 13  1  0
  8 14  1  0
  8 15  1  0
  9 16  1  0
  9 17  1  0
M  END
