
     RDKit          3D

 13 14  0  0  0  0  0  0  0  0999 V2000
    2.3149    1.0473    0.8202 O   0  0  0  0  0  0  0  0  0  0  0  0
    2.0306    0.0016    0.2618 C   0  0  0  0  0  0  0  0  0  0  0  0
    0.6691   -0.1346   -0.2979 C   0  0  0  0  0  0  0  0  0  0  0  0
   -0.1388    1.0628   -0.5591 C   0  0  0  0  0  0  0  0  0  0  0  0
   -1.4044    0.8545   -0.2848 C   0  0  0  0  0  0  0  0  0  0  0  0
   -1.6321   -0.4970    0.1955 C   0  0  0  0  0  0  0  0  0  0  0  0
   -2.7155   -1.0457    0.4823 O   0  0  0  0  0  0  0  0  0  0  0  0
   -0.3046   -1.1212    0.2847 C   0  0  0  0  0  0  0  0  0  0  0  0
    0.3244   -1.3244   -0.9387 O   0  0  0  0  0  0  0  0  0  0  0  0
    2.7862   -0.7707    0.2044 H   0  0  0  0  0  0  0  0  0  0  0  0
    0.2672    2.0113   -0.9362 H   0  0  0  0  0  0  0  0  0  0  0  0
   -2.1907    1.6097   -0.4045 H   0  0  0  0  0  0  0  0  0  0  0  0
   -0.0065   -1.6935    1.1721 H   0  0  0  0  0  0  0  0  0  0  0  0
  1  2  2  0
  2  3  1  0
  3  4  1  0
  4  5  2  0
  5  6  1  0
  6  7  2  0
  6  8  1  0
  8  9  1  0
  8  3  1  0
  9  3  1  0
  2 10  1  0
  4 11  1  0
  5 12  1  0
  8 13  1  0
M  END
