
     RDKit          3D

 19 20  0  0  0  0  0  0  0  0999 V2000
    2.8090   -1.2309    1.0893 O   0  0  0  0  0  0  0  0  0  0  0  0
    2.0535   -0.3780    0.6744 C   0  0  0  0  0  0  0  0  0  0  0  0
    0.6215   -0.6355    0.5771 C   0  0  0  0  0  0  0  0  0  0  0  0
   -0.2196    0.6055    0.9254 C   0  0  0  0  0  0  0  0  0  0  0  0
    0.3384    1.5272   -0.1352 C   0  0  0  0  0  0  0  0  0  0  0  0
    0.3879    0.7750   -1.2393 C   0  0  0  0  0  0  0  0  0  0  0  0
    0.1476   -0.6345   -0.8914 C   0  0  0  0  0  0  0  0  0  0  0  0
   -1.3406   -0.8600   -0.6068 C   0  0  0  0  0  0  0  0  0  0  0  0
   -1.5740    0.2051    0.4620 C   0  0  0  0  0  0  0  0  0  0  0  0
    2.4544    0.5709    0.3792 H   0  0  0  0  0  0  0  0  0  0  0  0
    0.2741   -1.5262    1.0950 H   0  0  0  0  0  0  0  0  0  0  0  0
   -0.1014    0.9512    1.9214 H   0  0  0  0  0  0  0  0  0  0  0  0
    0.6286    2.5594   -0.0172 H   0  0  0  0  0  0  0  0  0  0  0  0
    0.5755    1.1339   -2.2448 H   0  0  0  0  0  0  0  0  0  0  0  0
    0.6066   -1.3799   -1.4938 H   0  0  0  0  0  0  0  0  0  0  0  0
   -1.4035   -1.8671   -0.1485 H   0  0  0  0  0  0  0  0  0  0  0  0
   -1.9594   -0.7206   -1.4867 H   0  0  0  0  0  0  0  0  0  0  0  0
   -2.0488    1.0699   -0.0866 H   0  0  0  0  0  0  0  0  0  0  0  0
   -2.2499   -0.1653    1.2268 H   0  0  0  0  0  0  0  0  0  0  0  0
  1  2  2  0
  2  3  1  0
  3  4  1  0
  4  5  1  0
  5  6  2  0
  6  7  1  0
  7  8  1  0
  8  9  1  0
  7  3  1  0
  9  4  1  0
  2 10  1  0
  3 11  1  0
  4 12  1  0
  5 13  1  0
  6 14  1  0
  7 15  1  0
  8 16  1  0
  8 17  1  0
  9 18  1  0
  9 19  1  0
M  END
