
     RDKit          3D

 16 16  0  0  0  0  0  0  0  0999 V2000
    2.2471   -1.5269    0.7049 O   0  0  0  0  0  0  0  0  0  0  0  0
    2.4064   -0.3797    0.3224 C   0  0  0  0  0  0  0  0  0  0  0  0
    1.3439    0.4817   -0.2231 C   0  0  0  0  0  0  0  0  0  0  0  0
    0.0056   -0.1915   -0.2708 C   0  0  0  0  0  0  0  0  0  0  0  0
   -1.0707    0.7107   -0.8341 C   0  0  0  0  0  0  0  0  0  0  0  0
   -2.2030    0.0613   -0.3777 O   0  0  0  0  0  0  0  0  0  0  0  0
   -1.8822   -0.5301    0.8145 C   0  0  0  0  0  0  0  0  0  0  0  0
   -0.5070   -0.4993    0.9707 O   0  0  0  0  0  0  0  0  0  0  0  0
    3.4056    0.0185    0.3959 H   0  0  0  0  0  0  0  0  0  0  0  0
    1.6157    0.7274   -1.2859 H   0  0  0  0  0  0  0  0  0  0  0  0
    1.2708    1.3991    0.3968 H   0  0  0  0  0  0  0  0  0  0  0  0
   -0.0032   -1.1140   -0.8758 H   0  0  0  0  0  0  0  0  0  0  0  0
   -0.9954    1.6714   -0.2912 H   0  0  0  0  0  0  0  0  0  0  0  0
   -1.0152    0.8063   -1.9273 H   0  0  0  0  0  0  0  0  0  0  0  0
   -2.3945   -0.0307    1.6774 H   0  0  0  0  0  0  0  0  0  0  0  0
   -2.2238   -1.6042    0.8034 H   0  0  0  0  0  0  0  0  0  0  0  0
  1  2  2  0
  2  3  1  0
  3  4  1  0
  4  5  1  0
  5  6  1  0
  6  7  1  0
  7  8  1  0
  8  4  1  0
  2  9  1  0
  3 10  1  0
  3 11  1  0
  4 12  1  0
  5 13  1  0
  5 14  1  0
  7 15  1  0
  7 16  1  0
M  END
