
     RDKit          3D

 21 21  0  0  0  0  0  0  0  0999 V2000
    3.4107   -0.2676    0.7483 O   0  0  0  0  0  0  0  0  0  0  0  0
    2.2535    0.0748    0.7708 C   0  0  0  0  0  0  0  0  0  0  0  0
    1.3321   -0.4341   -0.2455 C   0  0  0  0  0  0  0  0  0  0  0  0
   -0.0769    0.0662   -0.1068 C   0  0  0  0  0  0  0  0  0  0  0  0
   -0.2689    1.5438   -0.1892 C   0  0  0  0  0  0  0  0  0  0  0  0
    0.1557    2.0714   -1.3985 O   0  0  0  0  0  0  0  0  0  0  0  0
   -0.7999   -0.5160    1.0996 C   0  0  0  0  0  0  0  0  0  0  0  0
   -1.6524   -1.4084    0.2075 C   0  0  0  0  0  0  0  0  0  0  0  0
   -1.0341   -0.7181   -0.9788 C   0  0  0  0  0  0  0  0  0  0  0  0
    1.9293    0.7463    1.5389 H   0  0  0  0  0  0  0  0  0  0  0  0
    1.6952   -0.1281   -1.2438 H   0  0  0  0  0  0  0  0  0  0  0  0
    1.3303   -1.5359   -0.2320 H   0  0  0  0  0  0  0  0  0  0  0  0
    0.2458    2.0585    0.6534 H   0  0  0  0  0  0  0  0  0  0  0  0
   -1.3547    1.7489   -0.0533 H   0  0  0  0  0  0  0  0  0  0  0  0
    0.7146    2.8485   -1.2320 H   0  0  0  0  0  0  0  0  0  0  0  0
   -1.3623    0.2086    1.6953 H   0  0  0  0  0  0  0  0  0  0  0  0
   -0.1098   -1.1581    1.7068 H   0  0  0  0  0  0  0  0  0  0  0  0
   -2.7434   -1.1860    0.2450 H   0  0  0  0  0  0  0  0  0  0  0  0
   -1.4033   -2.4937    0.2766 H   0  0  0  0  0  0  0  0  0  0  0  0
   -1.7345   -0.0947   -1.5794 H   0  0  0  0  0  0  0  0  0  0  0  0
   -0.5271   -1.4264   -1.6827 H   0  0  0  0  0  0  0  0  0  0  0  0
  1  2  2  0
  2  3  1  0
  3  4  1  0
  4  5  1  0
  5  6  1  0
  4  7  1  0
  7  8  1  0
  8  9  1  0
  9  4  1  0
  2 10  1  0
  3 11  1  0
  3 12  1  0
  5 13  1  0
  5 14  1  0
  6 15  1  0
  7 16  1  0
  7 17  1  0
  8 18  1  0
  8 19  1  0
  9 20  1  0
  9 21  1  0
M  END
