
     RDKit          3D

 19 19  0  0  0  0  0  0  0  0999 V2000
    2.9850    0.1090   -0.6876 O   0  0  0  0  0  0  0  0  0  0  0  0
    2.3888   -0.6406    0.0722 C   0  0  0  0  0  0  0  0  0  0  0  0
    0.9509   -0.3612    0.3000 C   0  0  0  0  0  0  0  0  0  0  0  0
    0.6311    1.1239    0.1054 C   0  0  0  0  0  0  0  0  0  0  0  0
   -0.7890    1.3007    0.6589 C   0  0  0  0  0  0  0  0  0  0  0  0
   -1.6531    0.9044   -0.3305 O   0  0  0  0  0  0  0  0  0  0  0  0
   -2.0977   -0.3828   -0.2467 C   0  0  0  0  0  0  0  0  0  0  0  0
   -1.1435   -1.3364   -0.0430 O   0  0  0  0  0  0  0  0  0  0  0  0
    0.0600   -1.1115   -0.6666 C   0  0  0  0  0  0  0  0  0  0  0  0
    2.8584   -1.4747    0.5689 H   0  0  0  0  0  0  0  0  0  0  0  0
    0.6317   -0.5870    1.3497 H   0  0  0  0  0  0  0  0  0  0  0  0
    0.6199    1.2651   -1.0124 H   0  0  0  0  0  0  0  0  0  0  0  0
    1.3526    1.7760    0.5971 H   0  0  0  0  0  0  0  0  0  0  0  0
   -0.8899    0.7386    1.6057 H   0  0  0  0  0  0  0  0  0  0  0  0
   -0.8769    2.3744    0.9141 H   0  0  0  0  0  0  0  0  0  0  0  0
   -2.6325   -0.6258   -1.1926 H   0  0  0  0  0  0  0  0  0  0  0  0
   -2.8657   -0.4958    0.5669 H   0  0  0  0  0  0  0  0  0  0  0  0
    0.5709   -2.0507   -0.9647 H   0  0  0  0  0  0  0  0  0  0  0  0
   -0.1011   -0.5255   -1.5948 H   0  0  0  0  0  0  0  0  0  0  0  0
  1  2  2  0
  2  3  1  0
  3  4  1  0
  4  5  1  0
  5  6  1  0
  6  7  1  0
  7  8  1  0
  8  9  1  0
  9  3  1  0
  2 10  1  0
  3 11  1  0
  4 12  1  0
  4 13  1  0
  5 14  1  0
  5 15  1  0
  7 16  1  0
  7 17  1  0
  9 18  1  0
  9 19  1  0
M  END
