
     RDKit          3D

 21 22  0  0  0  0  0  0  0  0999 V2000
    2.8911   -1.6499    0.3836 O   0  0  0  0  0  0  0  0  0  0  0  0
    2.6164   -0.4640    0.3010 C   0  0  0  0  0  0  0  0  0  0  0  0
    1.2316    0.0644    0.3711 C   0  0  0  0  0  0  0  0  0  0  0  0
    1.0834    1.3496   -0.4040 C   0  0  0  0  0  0  0  0  0  0  0  0
    0.2580    0.5662   -1.4218 C   0  0  0  0  0  0  0  0  0  0  0  0
    0.2398   -0.6358   -0.5356 C   0  0  0  0  0  0  0  0  0  0  0  0
   -1.0468   -0.9031    0.2038 C   0  0  0  0  0  0  0  0  0  0  0  0
   -1.8578    0.1653    0.7753 C   0  0  0  0  0  0  0  0  0  0  0  0
   -2.3624   -0.6239   -0.4289 C   0  0  0  0  0  0  0  0  0  0  0  0
    3.4476    0.2190    0.1698 H   0  0  0  0  0  0  0  0  0  0  0  0
    0.8937    0.1428    1.4432 H   0  0  0  0  0  0  0  0  0  0  0  0
    0.5068    2.1076    0.1592 H   0  0  0  0  0  0  0  0  0  0  0  0
    2.0263    1.7307   -0.8446 H   0  0  0  0  0  0  0  0  0  0  0  0
   -0.7006    1.0798   -1.5984 H   0  0  0  0  0  0  0  0  0  0  0  0
    0.7872    0.4042   -2.3909 H   0  0  0  0  0  0  0  0  0  0  0  0
    0.6944   -1.5165   -1.0220 H   0  0  0  0  0  0  0  0  0  0  0  0
   -1.0159   -1.8615    0.7810 H   0  0  0  0  0  0  0  0  0  0  0  0
   -1.7077    1.2406    0.5394 H   0  0  0  0  0  0  0  0  0  0  0  0
   -2.3493    0.0070    1.7564 H   0  0  0  0  0  0  0  0  0  0  0  0
   -2.4019   -0.1443   -1.4104 H   0  0  0  0  0  0  0  0  0  0  0  0
   -3.2338   -1.2782   -0.1803 H   0  0  0  0  0  0  0  0  0  0  0  0
  1  2  2  0
  2  3  1  0
  3  4  1  0
  4  5  1  0
  5  6  1  0
  6  7  1  0
  7  8  1  0
  8  9  1  0
  6  3  1  0
  9  7  1  0
  2 10  1  0
  3 11  1  0
  4 12  1  0
  4 13  1  0
  5 14  1  0
  5 15  1  0
  6 16  1  0
  7 17  1  0
  8 18  1  0
  8 19  1  0
  9 20  1  0
  9 21  1  0
M  END
