
     RDKit          3D

 13 14  0  0  0  0  0  0  0  0999 V2000
    2.5335    0.0690   -1.1013 O   0  0  0  0  0  0  0  0  0  0  0  0
    1.7827   -0.1067   -0.1271 C   0  0  0  0  0  0  0  0  0  0  0  0
    0.4342    0.0053   -0.2232 C   0  0  0  0  0  0  0  0  0  0  0  0
   -0.5858   -1.0458    0.0883 C   0  0  0  0  0  0  0  0  0  0  0  0
   -1.3133    0.1776   -0.3859 C   0  0  0  0  0  0  0  0  0  0  0  0
   -0.4411    0.9790    0.5216 C   0  0  0  0  0  0  0  0  0  0  0  0
   -0.3054    0.3121   -1.3348 O   0  0  0  0  0  0  0  0  0  0  0  0
    2.3211   -0.3542    0.7861 H   0  0  0  0  0  0  0  0  0  0  0  0
   -0.6264   -1.8897   -0.5987 H   0  0  0  0  0  0  0  0  0  0  0  0
   -0.6528   -1.2651    1.1650 H   0  0  0  0  0  0  0  0  0  0  0  0
   -2.3039    0.2745   -0.5409 H   0  0  0  0  0  0  0  0  0  0  0  0
   -0.5466    0.8344    1.5955 H   0  0  0  0  0  0  0  0  0  0  0  0
   -0.2961    2.0097    0.1555 H   0  0  0  0  0  0  0  0  0  0  0  0
  1  2  2  0
  2  3  1  0
  3  4  1  0
  4  5  1  0
  5  6  1  0
  5  7  1  0
  6  3  1  0
  7  3  1  0
  2  8  1  0
  4  9  1  0
  4 10  1  0
  5 11  1  0
  6 12  1  0
  6 13  1  0
M  END
