
     RDKit          3D

 17 17  0  0  0  0  0  0  0  0999 V2000
    3.2790   -0.2607   -1.3820 O   0  0  0  0  0  0  0  0  0  0  0  0
    2.3938   -0.3488   -0.5607 C   0  0  0  0  0  0  0  0  0  0  0  0
    1.1770    0.5376   -0.6229 C   0  0  0  0  0  0  0  0  0  0  0  0
    0.2367    0.2337    0.4981 C   0  0  0  0  0  0  0  0  0  0  0  0
   -1.0272    1.0142    0.5971 C   0  0  0  0  0  0  0  0  0  0  0  0
   -1.0117   -0.5062    0.3911 C   0  0  0  0  0  0  0  0  0  0  0  0
   -1.3768   -1.2878    1.5213 O   0  0  0  0  0  0  0  0  0  0  0  0
   -1.6510   -0.8953   -0.8882 C   0  0  0  0  0  0  0  0  0  0  0  0
   -1.3793   -0.2535   -1.8744 O   0  0  0  0  0  0  0  0  0  0  0  0
    2.4851   -1.0768    0.2260 H   0  0  0  0  0  0  0  0  0  0  0  0
    1.5879    1.5697   -0.4073 H   0  0  0  0  0  0  0  0  0  0  0  0
    0.7604    0.5638   -1.6228 H   0  0  0  0  0  0  0  0  0  0  0  0
    0.8063    0.1140    1.4707 H   0  0  0  0  0  0  0  0  0  0  0  0
   -1.4363    1.3345    1.5574 H   0  0  0  0  0  0  0  0  0  0  0  0
   -1.2494    1.6680   -0.2439 H   0  0  0  0  0  0  0  0  0  0  0  0
   -1.2600   -0.6933    2.3049 H   0  0  0  0  0  0  0  0  0  0  0  0
   -2.3344   -1.7133   -0.9645 H   0  0  0  0  0  0  0  0  0  0  0  0
  1  2  2  0
  2  3  1  0
  3  4  1  0
  4  5  1  0
  5  6  1  0
  6  7  1  0
  6  8  1  0
  8  9  2  0
  6  4  1  0
  2 10  1  0
  3 11  1  0
  3 12  1  0
  4 13  1  0
  5 14  1  0
  5 15  1  0
  7 16  1  0
  8 17  1  0
M  END
