
     RDKit          3D

 17 19  0  0  0  0  0  0  0  0999 V2000
    3.8242    0.1807    0.0601 O   0  0  0  0  0  0  0  0  0  0  0  0
    2.7213    0.0788    0.5447 C   0  0  0  0  0  0  0  0  0  0  0  0
    1.5120    0.2795   -0.2909 C   0  0  0  0  0  0  0  0  0  0  0  0
    0.4380    0.9617    0.3343 C   0  0  0  0  0  0  0  0  0  0  0  0
   -0.3910    0.7170    1.3900 O   0  0  0  0  0  0  0  0  0  0  0  0
   -1.5884    0.4311    0.6878 C   0  0  0  0  0  0  0  0  0  0  0  0
   -2.1295   -0.9006    0.5428 C   0  0  0  0  0  0  0  0  0  0  0  0
   -1.0575   -0.4622   -0.4960 C   0  0  0  0  0  0  0  0  0  0  0  0
    0.3592   -0.5502   -0.1396 C   0  0  0  0  0  0  0  0  0  0  0  0
    2.5847   -0.1582    1.5868 H   0  0  0  0  0  0  0  0  0  0  0  0
    1.7795    0.5198   -1.3534 H   0  0  0  0  0  0  0  0  0  0  0  0
   -0.0833    1.7023   -0.3493 H   0  0  0  0  0  0  0  0  0  0  0  0
   -2.1042    1.3582    0.3818 H   0  0  0  0  0  0  0  0  0  0  0  0
   -3.1348   -1.0088    0.1556 H   0  0  0  0  0  0  0  0  0  0  0  0
   -1.7977   -1.6777    1.2693 H   0  0  0  0  0  0  0  0  0  0  0  0
   -1.4337   -0.1563   -1.4723 H   0  0  0  0  0  0  0  0  0  0  0  0
    0.5013   -1.3149    0.6879 H   0  0  0  0  0  0  0  0  0  0  0  0
  1  2  2  0
  2  3  1  0
  3  4  1  0
  4  5  1  0
  5  6  1  0
  6  7  1  0
  7  8  1  0
  8  9  1  0
  9  3  1  0
  9  4  1  0
  8  6  1  0
  2 10  1  0
  3 11  1  0
  4 12  1  0
  6 13  1  0
  7 14  1  0
  7 15  1  0
  8 16  1  0
  9 17  1  0
M  END
