
     RDKit          3D

 17 17  0  0  0  0  0  0  0  0999 V2000
   -0.1797    0.9888    2.0327 O   0  0  0  0  0  0  0  0  0  0  0  0
   -1.0879    0.5273    1.3731 C   0  0  0  0  0  0  0  0  0  0  0  0
   -0.9214   -0.1805    0.0909 C   0  0  0  0  0  0  0  0  0  0  0  0
   -2.1319   -0.6122   -0.4634 O   0  0  0  0  0  0  0  0  0  0  0  0
    0.1453   -1.2498    0.0566 C   0  0  0  0  0  0  0  0  0  0  0  0
    1.1141   -0.2026   -0.4184 C   0  0  0  0  0  0  0  0  0  0  0  0
    1.9054    0.3631    0.5842 O   0  0  0  0  0  0  0  0  0  0  0  0
   -0.0656    0.6160   -0.8671 C   0  0  0  0  0  0  0  0  0  0  0  0
   -0.0097    1.9650   -0.5405 O   0  0  0  0  0  0  0  0  0  0  0  0
   -2.0890    0.6520    1.7675 H   0  0  0  0  0  0  0  0  0  0  0  0
   -1.9332   -1.1866   -1.2399 H   0  0  0  0  0  0  0  0  0  0  0  0
   -0.0749   -1.9593   -0.7650 H   0  0  0  0  0  0  0  0  0  0  0  0
    0.3785   -1.7108    1.0333 H   0  0  0  0  0  0  0  0  0  0  0  0
    1.7204   -0.4948   -1.3027 H   0  0  0  0  0  0  0  0  0  0  0  0
    2.8097   -0.0234    0.4805 H   0  0  0  0  0  0  0  0  0  0  0  0
   -0.3206    0.4396   -1.9343 H   0  0  0  0  0  0  0  0  0  0  0  0
    0.7405    2.0683    0.1124 H   0  0  0  0  0  0  0  0  0  0  0  0
  1  2  2  0
  2  3  1  0
  3  4  1  0
  3  5  1  0
  5  6  1  0
  6  7  1  0
  6  8  1  0
  8  9  1  0
  8  3  1  0
  2 10  1  0
  4 11  1  0
  5 12  1  0
  5 13  1  0
  6 14  1  0
  7 15  1  0
  8 16  1  0
  9 17  1  0
M  END
