
     RDKit          3D

 17 18  0  0  0  0  0  0  0  0999 V2000
    2.4675    1.0707   -1.1083 O   0  0  0  0  0  0  0  0  0  0  0  0
    2.2959    0.1671   -0.3299 C   0  0  0  0  0  0  0  0  0  0  0  0
    1.1233    0.1717    0.5489 C   0  0  0  0  0  0  0  0  0  0  0  0
    0.1921   -1.0186    0.2367 C   0  0  0  0  0  0  0  0  0  0  0  0
   -0.9264   -0.2589   -0.3707 C   0  0  0  0  0  0  0  0  0  0  0  0
   -0.5032    0.1826   -1.6590 O   0  0  0  0  0  0  0  0  0  0  0  0
   -2.0518    0.3976    0.1298 C   0  0  0  0  0  0  0  0  0  0  0  0
   -0.8830    0.8588    0.7547 C   0  0  0  0  0  0  0  0  0  0  0  0
    0.3236    1.3261    0.3209 O   0  0  0  0  0  0  0  0  0  0  0  0
    3.0047   -0.6380   -0.2844 H   0  0  0  0  0  0  0  0  0  0  0  0
    1.4269    0.0944    1.6005 H   0  0  0  0  0  0  0  0  0  0  0  0
   -0.0527   -1.5682    1.1572 H   0  0  0  0  0  0  0  0  0  0  0  0
    0.6763   -1.7187   -0.4736 H   0  0  0  0  0  0  0  0  0  0  0  0
   -0.9326   -0.4573   -2.2813 H   0  0  0  0  0  0  0  0  0  0  0  0
   -2.6278    1.1169   -0.5172 H   0  0  0  0  0  0  0  0  0  0  0  0
   -2.8051   -0.2022    0.7200 H   0  0  0  0  0  0  0  0  0  0  0  0
   -0.7277    0.4760    1.8134 H   0  0  0  0  0  0  0  0  0  0  0  0
  1  2  2  0
  2  3  1  0
  3  4  1  0
  4  5  1  0
  5  6  1  0
  5  7  1  0
  7  8  1  0
  8  9  1  0
  9  3  1  0
  8  5  1  0
  2 10  1  0
  3 11  1  0
  4 12  1  0
  4 13  1  0
  6 14  1  0
  7 15  1  0
  7 16  1  0
  8 17  1  0
M  END
