
     RDKit          3D

 17 17  0  0  0  0  0  0  0  0999 V2000
    3.0040    2.2984    0.3004 O   0  0  0  0  0  0  0  0  0  0  0  0
    2.8233    1.1517    0.5183 C   0  0  0  0  0  0  0  0  0  0  0  0
    2.6351    0.1059   -0.4854 C   0  0  0  0  0  0  0  0  0  0  0  0
    1.2084   -0.3305   -0.5458 C   0  0  0  0  0  0  0  0  0  0  0  0
    0.0448   -0.6684   -0.6072 C   0  0  0  0  0  0  0  0  0  0  0  0
   -1.3609   -1.0725   -0.6561 C   0  0  0  0  0  0  0  0  0  0  0  0
   -2.0499   -0.6418    0.6091 C   0  0  0  0  0  0  0  0  0  0  0  0
   -2.3164    0.5468   -0.2705 C   0  0  0  0  0  0  0  0  0  0  0  0
   -2.1581   -0.2255   -1.4362 O   0  0  0  0  0  0  0  0  0  0  0  0
    2.7825    0.8030    1.5730 H   0  0  0  0  0  0  0  0  0  0  0  0
    3.2234   -0.8057   -0.2509 H   0  0  0  0  0  0  0  0  0  0  0  0
    2.9718    0.4939   -1.4577 H   0  0  0  0  0  0  0  0  0  0  0  0
   -1.5254   -2.1252   -0.9573 H   0  0  0  0  0  0  0  0  0  0  0  0
   -1.4128   -0.5124    1.4829 H   0  0  0  0  0  0  0  0  0  0  0  0
   -2.9544   -1.2810    0.8227 H   0  0  0  0  0  0  0  0  0  0  0  0
   -1.5509    1.3125   -0.2111 H   0  0  0  0  0  0  0  0  0  0  0  0
   -3.3646    0.9508   -0.1420 H   0  0  0  0  0  0  0  0  0  0  0  0
  1  2  2  0
  2  3  1  0
  3  4  1  0
  4  5  3  0
  5  6  1  0
  6  7  1  0
  7  8  1  0
  8  9  1  0
  9  6  1  0
  2 10  1  0
  3 11  1  0
  3 12  1  0
  6 13  1  0
  7 14  1  0
  7 15  1  0
  8 16  1  0
  8 17  1  0
M  END
