
     RDKit          3D

 17 18  0  0  0  0  0  0  0  0999 V2000
    2.5233    0.8511   -1.1928 O   0  0  0  0  0  0  0  0  0  0  0  0
    2.1901   -0.0307   -0.4302 C   0  0  0  0  0  0  0  0  0  0  0  0
    1.0175    0.0799    0.4548 C   0  0  0  0  0  0  0  0  0  0  0  0
    0.1524    1.2799    0.2686 C   0  0  0  0  0  0  0  0  0  0  0  0
   -1.0251    0.3928   -0.0222 C   0  0  0  0  0  0  0  0  0  0  0  0
   -1.8431    0.6702   -1.0915 O   0  0  0  0  0  0  0  0  0  0  0  0
   -1.3335   -0.7277    0.9136 C   0  0  0  0  0  0  0  0  0  0  0  0
   -0.1514   -0.7876    0.0458 C   0  0  0  0  0  0  0  0  0  0  0  0
   -0.0221   -1.6983   -0.9727 O   0  0  0  0  0  0  0  0  0  0  0  0
    2.7690   -0.9494   -0.3833 H   0  0  0  0  0  0  0  0  0  0  0  0
    1.2507   -0.0830    1.5208 H   0  0  0  0  0  0  0  0  0  0  0  0
   -0.0498    1.8612    1.2026 H   0  0  0  0  0  0  0  0  0  0  0  0
    0.3610    1.9251   -0.6045 H   0  0  0  0  0  0  0  0  0  0  0  0
   -2.0376    1.6603   -1.0584 H   0  0  0  0  0  0  0  0  0  0  0  0
   -2.1918   -1.3698    0.6451 H   0  0  0  0  0  0  0  0  0  0  0  0
   -1.1585   -0.5042    1.9863 H   0  0  0  0  0  0  0  0  0  0  0  0
   -0.4510   -2.5697   -0.7234 H   0  0  0  0  0  0  0  0  0  0  0  0
  1  2  2  0
  2  3  1  0
  3  4  1  0
  4  5  1  0
  5  6  1  0
  5  7  1  0
  7  8  1  0
  8  9  1  0
  8  3  1  0
  8  5  1  0
  2 10  1  0
  3 11  1  0
  4 12  1  0
  4 13  1  0
  6 14  1  0
  7 15  1  0
  7 16  1  0
  9 17  1  0
M  END
