
     RDKit          3D

 17 17  0  0  0  0  0  0  0  0999 V2000
   -0.4848    1.9969   -0.7335 O   0  0  0  0  0  0  0  0  0  0  0  0
   -1.2352    1.2188   -0.1497 C   0  0  0  0  0  0  0  0  0  0  0  0
   -0.6746    0.2192    0.7950 C   0  0  0  0  0  0  0  0  0  0  0  0
   -1.1761    0.4345    2.0969 O   0  0  0  0  0  0  0  0  0  0  0  0
   -0.7726   -1.1933    0.3079 C   0  0  0  0  0  0  0  0  0  0  0  0
   -1.3137   -1.4114   -0.9242 O   0  0  0  0  0  0  0  0  0  0  0  0
    0.5315   -0.5768    0.5247 C   0  0  0  0  0  0  0  0  0  0  0  0
    1.3118   -0.0280   -0.6700 C   0  0  0  0  0  0  0  0  0  0  0  0
    2.5104   -0.6821   -0.9017 O   0  0  0  0  0  0  0  0  0  0  0  0
   -2.2761    1.2768   -0.3330 H   0  0  0  0  0  0  0  0  0  0  0  0
   -0.5510    1.2508    2.3485 H   0  0  0  0  0  0  0  0  0  0  0  0
   -1.0993   -1.9580    1.0596 H   0  0  0  0  0  0  0  0  0  0  0  0
   -1.2951   -0.6175   -1.4777 H   0  0  0  0  0  0  0  0  0  0  0  0
    1.1733   -0.9715    1.3537 H   0  0  0  0  0  0  0  0  0  0  0  0
    1.6105    1.0221   -0.3219 H   0  0  0  0  0  0  0  0  0  0  0  0
    0.6663    0.0949   -1.5254 H   0  0  0  0  0  0  0  0  0  0  0  0
    3.0746   -0.0754   -1.4491 H   0  0  0  0  0  0  0  0  0  0  0  0
  1  2  2  0
  2  3  1  0
  3  4  1  0
  3  5  1  0
  5  6  1  0
  5  7  1  0
  7  8  1  0
  8  9  1  0
  7  3  1  0
  2 10  1  0
  4 11  1  0
  5 12  1  0
  6 13  1  0
  7 14  1  0
  8 15  1  0
  8 16  1  0
  9 17  1  0
M  END
