
     RDKit          3D

 12 12  0  0  0  0  0  0  0  0999 V2000
   -2.2595   -0.4912   -0.6231 O   0  0  0  0  0  0  0  0  0  0  0  0
   -1.6200    0.5222   -0.4494 C   0  0  0  0  0  0  0  0  0  0  0  0
   -0.1882    0.5528   -0.1034 C   0  0  0  0  0  0  0  0  0  0  0  0
    0.1930   -0.4821    0.9500 C   0  0  0  0  0  0  0  0  0  0  0  0
    0.7142   -0.5765   -0.4209 C   0  0  0  0  0  0  0  0  0  0  0  0
    2.0254   -0.2426   -0.7451 O   0  0  0  0  0  0  0  0  0  0  0  0
   -2.1325    1.4664   -0.5550 H   0  0  0  0  0  0  0  0  0  0  0  0
    0.2819    1.5436    0.0289 H   0  0  0  0  0  0  0  0  0  0  0  0
    0.8355   -0.1187    1.7933 H   0  0  0  0  0  0  0  0  0  0  0  0
   -0.5588   -1.2111    1.2878 H   0  0  0  0  0  0  0  0  0  0  0  0
    0.3457   -1.4509   -1.0156 H   0  0  0  0  0  0  0  0  0  0  0  0
    2.3634    0.4881   -0.1475 H   0  0  0  0  0  0  0  0  0  0  0  0
  1  2  2  0
  2  3  1  0
  3  4  1  0
  4  5  1  0
  5  6  1  0
  5  3  1  0
  2  7  1  0
  3  8  1  0
  4  9  1  0
  4 10  1  0
  5 11  1  0
  6 12  1  0
M  END
