
     RDKit          3D

 15 15  0  0  0  0  0  0  0  0999 V2000
    2.7005    0.4450   -0.9948 O   0  0  0  0  0  0  0  0  0  0  0  0
    1.5965   -0.1139   -1.0795 C   0  0  0  0  0  0  0  0  0  0  0  0
    0.9865   -0.7390    0.1229 C   0  0  0  0  0  0  0  0  0  0  0  0
    0.3028    0.3092    0.9733 C   0  0  0  0  0  0  0  0  0  0  0  0
   -0.7926    1.0265    0.2388 C   0  0  0  0  0  0  0  0  0  0  0  0
   -1.9459    0.3116   -0.3042 C   0  0  0  0  0  0  0  0  0  0  0  0
   -2.0357    0.9181    0.9682 O   0  0  0  0  0  0  0  0  0  0  0  0
    1.1390   -0.1042   -2.0681 H   0  0  0  0  0  0  0  0  0  0  0  0
    1.7778   -1.1866    0.7276 H   0  0  0  0  0  0  0  0  0  0  0  0
    0.2188   -1.4512   -0.2282 H   0  0  0  0  0  0  0  0  0  0  0  0
    1.0901    1.0590    1.2174 H   0  0  0  0  0  0  0  0  0  0  0  0
   -0.0184   -0.1046    1.9469 H   0  0  0  0  0  0  0  0  0  0  0  0
   -0.5333    2.0299   -0.1410 H   0  0  0  0  0  0  0  0  0  0  0  0
   -2.5495    0.8494   -1.0610 H   0  0  0  0  0  0  0  0  0  0  0  0
   -1.9366   -0.8132   -0.3184 H   0  0  0  0  0  0  0  0  0  0  0  0
  1  2  2  0
  2  3  1  0
  3  4  1  0
  4  5  1  0
  5  6  1  0
  6  7  1  0
  7  5  1  0
  2  8  1  0
  3  9  1  0
  3 10  1  0
  4 11  1  0
  4 12  1  0
  5 13  1  0
  6 14  1  0
  6 15  1  0
M  END
