
     RDKit          3D

 17 18  0  0  0  0  0  0  0  0999 V2000
    2.3868   -0.4226    1.5244 O   0  0  0  0  0  0  0  0  0  0  0  0
    1.9666   -0.2826    0.3866 C   0  0  0  0  0  0  0  0  0  0  0  0
    0.6044   -0.0253    0.1113 C   0  0  0  0  0  0  0  0  0  0  0  0
    0.0168    1.3553    0.3088 C   0  0  0  0  0  0  0  0  0  0  0  0
   -1.3773    1.0237   -0.1091 C   0  0  0  0  0  0  0  0  0  0  0  0
   -2.3188    1.7656   -0.1608 O   0  0  0  0  0  0  0  0  0  0  0  0
   -1.3129   -0.3909   -0.4311 C   0  0  0  0  0  0  0  0  0  0  0  0
   -0.4692   -0.9183    0.7435 C   0  0  0  0  0  0  0  0  0  0  0  0
   -0.0017   -0.5336   -1.2039 C   0  0  0  0  0  0  0  0  0  0  0  0
    2.7055   -0.3681   -0.4049 H   0  0  0  0  0  0  0  0  0  0  0  0
    0.0726    1.5989    1.3909 H   0  0  0  0  0  0  0  0  0  0  0  0
    0.4862    2.1230   -0.3076 H   0  0  0  0  0  0  0  0  0  0  0  0
   -2.1451   -0.9594   -0.7336 H   0  0  0  0  0  0  0  0  0  0  0  0
   -0.1995   -1.9581    0.5955 H   0  0  0  0  0  0  0  0  0  0  0  0
   -0.8576   -0.5833    1.6918 H   0  0  0  0  0  0  0  0  0  0  0  0
    0.3235   -1.5761   -1.3569 H   0  0  0  0  0  0  0  0  0  0  0  0
    0.1196    0.1517   -2.0447 H   0  0  0  0  0  0  0  0  0  0  0  0
  1  2  2  0
  2  3  1  0
  3  4  1  0
  4  5  1  0
  5  6  2  0
  5  7  1  0
  7  8  1  0
  7  9  1  0
  8  3  1  0
  9  3  1  0
  2 10  1  0
  4 11  1  0
  4 12  1  0
  7 13  1  0
  8 14  1  0
  8 15  1  0
  9 16  1  0
  9 17  1  0
M  END
