
     RDKit          3D

 19 19  0  0  0  0  0  0  0  0999 V2000
    1.7994    2.3678    0.1836 O   0  0  0  0  0  0  0  0  0  0  0  0
    0.8700    1.6716    0.5131 C   0  0  0  0  0  0  0  0  0  0  0  0
    0.5625    0.4598   -0.2708 C   0  0  0  0  0  0  0  0  0  0  0  0
    1.6889   -0.5337   -0.2990 C   0  0  0  0  0  0  0  0  0  0  0  0
    2.0508   -0.9932    0.9433 O   0  0  0  0  0  0  0  0  0  0  0  0
   -0.7280   -0.1275    0.2171 C   0  0  0  0  0  0  0  0  0  0  0  0
   -0.7283   -0.4981    1.5487 O   0  0  0  0  0  0  0  0  0  0  0  0
   -1.9814    0.5985   -0.2952 C   0  0  0  0  0  0  0  0  0  0  0  0
   -1.6793   -0.7993   -0.6854 C   0  0  0  0  0  0  0  0  0  0  0  0
    0.2881    1.9492    1.3684 H   0  0  0  0  0  0  0  0  0  0  0  0
    0.4102    0.7963   -1.3328 H   0  0  0  0  0  0  0  0  0  0  0  0
    1.4110   -1.3294   -1.0186 H   0  0  0  0  0  0  0  0  0  0  0  0
    2.5705   -0.0114   -0.7462 H   0  0  0  0  0  0  0  0  0  0  0  0
    2.6962   -1.7392    0.8057 H   0  0  0  0  0  0  0  0  0  0  0  0
   -0.9058   -1.4654    1.6495 H   0  0  0  0  0  0  0  0  0  0  0  0
   -2.8040    0.7759    0.3975 H   0  0  0  0  0  0  0  0  0  0  0  0
   -1.8295    1.4311   -1.0213 H   0  0  0  0  0  0  0  0  0  0  0  0
   -1.3617   -0.9700   -1.7278 H   0  0  0  0  0  0  0  0  0  0  0  0
   -2.3294   -1.5831   -0.2298 H   0  0  0  0  0  0  0  0  0  0  0  0
  1  2  2  0
  2  3  1  0
  3  4  1  0
  4  5  1  0
  3  6  1  0
  6  7  1  0
  6  8  1  0
  8  9  1  0
  9  6  1  0
  2 10  1  0
  3 11  1  0
  4 12  1  0
  4 13  1  0
  5 14  1  0
  7 15  1  0
  8 16  1  0
  8 17  1  0
  9 18  1  0
  9 19  1  0
M  END
