
     RDKit          3D

 17 18  0  0  0  0  0  0  0  0999 V2000
    1.7404    2.2061    0.4159 O   0  0  0  0  0  0  0  0  0  0  0  0
    1.2788    1.5003   -0.4592 C   0  0  0  0  0  0  0  0  0  0  0  0
    1.4919    0.0490   -0.4790 C   0  0  0  0  0  0  0  0  0  0  0  0
    2.2677   -0.2938    0.6275 O   0  0  0  0  0  0  0  0  0  0  0  0
    0.1796   -0.6823   -0.3539 C   0  0  0  0  0  0  0  0  0  0  0  0
   -0.7316   -0.4624   -1.3754 O   0  0  0  0  0  0  0  0  0  0  0  0
   -1.7247   -0.7083   -0.4014 C   0  0  0  0  0  0  0  0  0  0  0  0
   -2.0444    0.4473    0.4292 C   0  0  0  0  0  0  0  0  0  0  0  0
   -0.7513   -0.2027    0.6971 C   0  0  0  0  0  0  0  0  0  0  0  0
    0.6958    1.9823   -1.2367 H   0  0  0  0  0  0  0  0  0  0  0  0
    2.0355   -0.3144   -1.3691 H   0  0  0  0  0  0  0  0  0  0  0  0
    2.9559   -0.9717    0.4182 H   0  0  0  0  0  0  0  0  0  0  0  0
    0.3762   -1.7877   -0.3069 H   0  0  0  0  0  0  0  0  0  0  0  0
   -2.0804   -1.7216   -0.2475 H   0  0  0  0  0  0  0  0  0  0  0  0
   -2.0975    1.4348   -0.1074 H   0  0  0  0  0  0  0  0  0  0  0  0
   -2.8652    0.3517    1.1692 H   0  0  0  0  0  0  0  0  0  0  0  0
   -0.7268   -0.8269    1.6376 H   0  0  0  0  0  0  0  0  0  0  0  0
  1  2  2  0
  2  3  1  0
  3  4  1  0
  3  5  1  0
  5  6  1  0
  6  7  1  0
  7  8  1  0
  8  9  1  0
  9  5  1  0
  9  7  1  0
  2 10  1  0
  3 11  1  0
  4 12  1  0
  5 13  1  0
  7 14  1  0
  8 15  1  0
  8 16  1  0
  9 17  1  0
M  END
