
     RDKit          3D

 17 18  0  0  0  0  0  0  0  0999 V2000
    3.0485   -0.6889   -0.6091 O   0  0  0  0  0  0  0  0  0  0  0  0
    1.8336   -0.6576   -0.5367 C   0  0  0  0  0  0  0  0  0  0  0  0
    1.2083   -0.0161    0.6195 C   0  0  0  0  0  0  0  0  0  0  0  0
   -0.1241   -0.4016    1.1297 C   0  0  0  0  0  0  0  0  0  0  0  0
   -1.0610   -1.2115    0.3451 C   0  0  0  0  0  0  0  0  0  0  0  0
   -1.3530   -0.6594   -0.8242 C   0  0  0  0  0  0  0  0  0  0  0  0
   -0.6351    0.6305   -0.9926 C   0  0  0  0  0  0  0  0  0  0  0  0
   -0.0106    0.8568    0.3522 C   0  0  0  0  0  0  0  0  0  0  0  0
   -0.0975    2.0907    0.9607 O   0  0  0  0  0  0  0  0  0  0  0  0
    1.2942   -1.1225   -1.3612 H   0  0  0  0  0  0  0  0  0  0  0  0
    1.9027    0.4057    1.3648 H   0  0  0  0  0  0  0  0  0  0  0  0
   -0.3208   -0.2570    2.2165 H   0  0  0  0  0  0  0  0  0  0  0  0
   -1.4842   -2.1585    0.6589 H   0  0  0  0  0  0  0  0  0  0  0  0
   -2.0214   -1.0470   -1.6027 H   0  0  0  0  0  0  0  0  0  0  0  0
   -1.3360    1.4361   -1.2792 H   0  0  0  0  0  0  0  0  0  0  0  0
    0.1614    0.5713   -1.7797 H   0  0  0  0  0  0  0  0  0  0  0  0
   -1.0051    2.2290    1.3381 H   0  0  0  0  0  0  0  0  0  0  0  0
  1  2  2  0
  2  3  1  0
  3  4  1  0
  4  5  1  0
  5  6  2  0
  6  7  1  0
  7  8  1  0
  8  9  1  0
  8  3  1  0
  8  4  1  0
  2 10  1  0
  3 11  1  0
  4 12  1  0
  5 13  1  0
  6 14  1  0
  7 15  1  0
  7 16  1  0
  9 17  1  0
M  END
