
     RDKit          3D

 17 18  0  0  0  0  0  0  0  0999 V2000
   -3.3486    0.2426    0.2018 O   0  0  0  0  0  0  0  0  0  0  0  0
   -2.4574   -0.4738   -0.1982 C   0  0  0  0  0  0  0  0  0  0  0  0
   -1.0654   -0.1278    0.0772 C   0  0  0  0  0  0  0  0  0  0  0  0
   -0.6663    1.2236   -0.4863 C   0  0  0  0  0  0  0  0  0  0  0  0
    0.7001    1.2837   -0.5080 O   0  0  0  0  0  0  0  0  0  0  0  0
    1.3358    0.4977    0.4271 C   0  0  0  0  0  0  0  0  0  0  0  0
    2.2756   -0.5248   -0.1970 C   0  0  0  0  0  0  0  0  0  0  0  0
    0.9805   -0.9694    0.3143 C   0  0  0  0  0  0  0  0  0  0  0  0
   -0.1616   -1.0523   -0.4501 O   0  0  0  0  0  0  0  0  0  0  0  0
   -2.7112   -1.3580   -0.7531 H   0  0  0  0  0  0  0  0  0  0  0  0
   -0.8952   -0.0443    1.1907 H   0  0  0  0  0  0  0  0  0  0  0  0
   -1.1008    2.0663    0.0848 H   0  0  0  0  0  0  0  0  0  0  0  0
   -1.0202    1.2291   -1.5477 H   0  0  0  0  0  0  0  0  0  0  0  0
    1.5080    0.8334    1.4504 H   0  0  0  0  0  0  0  0  0  0  0  0
    2.5164   -0.4483   -1.2723 H   0  0  0  0  0  0  0  0  0  0  0  0
    3.1650   -0.7919    0.4180 H   0  0  0  0  0  0  0  0  0  0  0  0
    0.9452   -1.5859    1.2483 H   0  0  0  0  0  0  0  0  0  0  0  0
  1  2  2  0
  2  3  1  0
  3  4  1  0
  4  5  1  0
  5  6  1  0
  6  7  1  0
  7  8  1  0
  8  9  1  0
  9  3  1  0
  8  6  1  0
  2 10  1  0
  3 11  1  0
  4 12  1  0
  4 13  1  0
  6 14  1  0
  7 15  1  0
  7 16  1  0
  8 17  1  0
M  END
