
     RDKit          3D

 19 21  0  0  0  0  0  0  0  0999 V2000
   -3.0003   -0.7555   -0.0620 O   0  0  0  0  0  0  0  0  0  0  0  0
   -2.0919   -0.8355    0.7185 C   0  0  0  0  0  0  0  0  0  0  0  0
   -0.6645   -0.7954    0.3294 C   0  0  0  0  0  0  0  0  0  0  0  0
   -0.4600    0.0388   -0.9415 C   0  0  0  0  0  0  0  0  0  0  0  0
   -0.7275    1.2196    0.0089 C   0  0  0  0  0  0  0  0  0  0  0  0
    0.0654    0.3336    0.9859 C   0  0  0  0  0  0  0  0  0  0  0  0
    1.4290    0.4036    0.3518 C   0  0  0  0  0  0  0  0  0  0  0  0
    1.9803   -0.7190   -0.4218 C   0  0  0  0  0  0  0  0  0  0  0  0
    1.0006    0.1052   -1.1299 C   0  0  0  0  0  0  0  0  0  0  0  0
   -2.3182   -0.9437    1.7719 H   0  0  0  0  0  0  0  0  0  0  0  0
   -0.2126   -1.7763    0.3164 H   0  0  0  0  0  0  0  0  0  0  0  0
   -1.1404   -0.1048   -1.7408 H   0  0  0  0  0  0  0  0  0  0  0  0
   -0.1979    2.1372   -0.2453 H   0  0  0  0  0  0  0  0  0  0  0  0
   -1.7930    1.2801    0.2300 H   0  0  0  0  0  0  0  0  0  0  0  0
   -0.0522    0.5291    2.0215 H   0  0  0  0  0  0  0  0  0  0  0  0
    1.9924    1.3492    0.4681 H   0  0  0  0  0  0  0  0  0  0  0  0
    3.0449   -0.5820   -0.7455 H   0  0  0  0  0  0  0  0  0  0  0  0
    1.7928   -1.7241   -0.0351 H   0  0  0  0  0  0  0  0  0  0  0  0
    1.3531    0.8401   -1.8804 H   0  0  0  0  0  0  0  0  0  0  0  0
  1  2  2  0
  2  3  1  0
  3  4  1  0
  4  5  1  0
  5  6  1  0
  6  7  1  0
  7  8  1  0
  8  9  1  0
  6  3  1  0
  9  7  1  0
  9  4  1  0
  2 10  1  0
  3 11  1  0
  4 12  1  0
  5 13  1  0
  5 14  1  0
  6 15  1  0
  7 16  1  0
  8 17  1  0
  8 18  1  0
  9 19  1  0
M  END
