
     RDKit          3D

 15 16  0  0  0  0  0  0  0  0999 V2000
    2.6719    0.6717    1.0269 O   0  0  0  0  0  0  0  0  0  0  0  0
    2.1115   -0.0864    0.2520 C   0  0  0  0  0  0  0  0  0  0  0  0
    0.9391    0.2546   -0.5487 C   0  0  0  0  0  0  0  0  0  0  0  0
    0.5156   -0.8032   -1.3408 O   0  0  0  0  0  0  0  0  0  0  0  0
   -0.7187   -0.9228   -0.7421 C   0  0  0  0  0  0  0  0  0  0  0  0
   -0.8566   -1.0436    0.7392 C   0  0  0  0  0  0  0  0  0  0  0  0
   -0.3963    0.2142    0.1470 C   0  0  0  0  0  0  0  0  0  0  0  0
   -1.2433    1.4385    0.1223 C   0  0  0  0  0  0  0  0  0  0  0  0
   -0.7456    2.4609    0.5534 O   0  0  0  0  0  0  0  0  0  0  0  0
    2.5356   -1.0794    0.1712 H   0  0  0  0  0  0  0  0  0  0  0  0
    1.0468    1.2264   -1.0925 H   0  0  0  0  0  0  0  0  0  0  0  0
   -1.5817   -0.9427   -1.4092 H   0  0  0  0  0  0  0  0  0  0  0  0
   -0.1339   -1.6902    1.2744 H   0  0  0  0  0  0  0  0  0  0  0  0
   -1.8799   -1.1248    1.1105 H   0  0  0  0  0  0  0  0  0  0  0  0
   -2.2644    1.4267   -0.2634 H   0  0  0  0  0  0  0  0  0  0  0  0
  1  2  2  0
  2  3  1  0
  3  4  1  0
  4  5  1  0
  5  6  1  0
  6  7  1  0
  7  8  1  0
  8  9  2  0
  7  3  1  0
  7  5  1  0
  2 10  1  0
  3 11  1  0
  5 12  1  0
  6 13  1  0
  6 14  1  0
  8 15  1  0
M  END
