
     RDKit          3D

 18 17  0  0  0  0  0  0  0  0999 V2000
    1.8517    1.8122    0.4028 O   0  0  0  0  0  0  0  0  0  0  0  0
    2.3132    0.7104    0.1873 C   0  0  0  0  0  0  0  0  0  0  0  0
    1.5301   -0.4820    0.5657 C   0  0  0  0  0  0  0  0  0  0  0  0
    2.2638   -1.6425    0.2292 O   0  0  0  0  0  0  0  0  0  0  0  0
    0.2120   -0.6036   -0.1315 C   0  0  0  0  0  0  0  0  0  0  0  0
   -0.7285    0.5322    0.1051 C   0  0  0  0  0  0  0  0  0  0  0  0
   -2.0124    0.2346   -0.6790 C   0  0  0  0  0  0  0  0  0  0  0  0
   -2.9427    1.2373   -0.5174 O   0  0  0  0  0  0  0  0  0  0  0  0
    3.2841    0.6136   -0.2754 H   0  0  0  0  0  0  0  0  0  0  0  0
    1.3682   -0.4778    1.6784 H   0  0  0  0  0  0  0  0  0  0  0  0
    1.6863   -2.3474   -0.1421 H   0  0  0  0  0  0  0  0  0  0  0  0
   -0.2797   -1.5258    0.2931 H   0  0  0  0  0  0  0  0  0  0  0  0
    0.3686   -0.7872   -1.2016 H   0  0  0  0  0  0  0  0  0  0  0  0
   -0.3163    1.4486   -0.3732 H   0  0  0  0  0  0  0  0  0  0  0  0
   -0.9610    0.6865    1.1569 H   0  0  0  0  0  0  0  0  0  0  0  0
   -2.4133   -0.7183   -0.2716 H   0  0  0  0  0  0  0  0  0  0  0  0
   -1.7884    0.1108   -1.7494 H   0  0  0  0  0  0  0  0  0  0  0  0
   -3.4357    1.1984    0.3423 H   0  0  0  0  0  0  0  0  0  0  0  0
  1  2  2  0
  2  3  1  0
  3  4  1  0
  3  5  1  0
  5  6  1  0
  6  7  1  0
  7  8  1  0
  2  9  1  0
  3 10  1  0
  4 11  1  0
  5 12  1  0
  5 13  1  0
  6 14  1  0
  6 15  1  0
  7 16  1  0
  7 17  1  0
  8 18  1  0
M  END
