
     RDKit          3D

 19 21  0  0  0  0  0  0  0  0999 V2000
    1.9960    1.6776   -1.4909 O   0  0  0  0  0  0  0  0  0  0  0  0
    1.8927    1.0157   -0.4804 C   0  0  0  0  0  0  0  0  0  0  0  0
    0.8652   -0.0476   -0.3639 C   0  0  0  0  0  0  0  0  0  0  0  0
    1.1981   -1.2973    0.3182 C   0  0  0  0  0  0  0  0  0  0  0  0
    0.3690   -0.3565    1.0954 C   0  0  0  0  0  0  0  0  0  0  0  0
   -1.1071   -0.2522    0.8553 C   0  0  0  0  0  0  0  0  0  0  0  0
   -1.1853    1.0846    0.0994 C   0  0  0  0  0  0  0  0  0  0  0  0
   -0.4450    0.2681   -0.9752 C   0  0  0  0  0  0  0  0  0  0  0  0
   -1.3745   -0.8503   -0.5046 C   0  0  0  0  0  0  0  0  0  0  0  0
    2.5679    1.2190    0.3346 H   0  0  0  0  0  0  0  0  0  0  0  0
    0.7866   -2.2785    0.0899 H   0  0  0  0  0  0  0  0  0  0  0  0
    2.2694   -1.3646    0.6736 H   0  0  0  0  0  0  0  0  0  0  0  0
    0.7941    0.3119    1.8544 H   0  0  0  0  0  0  0  0  0  0  0  0
   -1.7985   -0.4065    1.6441 H   0  0  0  0  0  0  0  0  0  0  0  0
   -0.6116    1.8939    0.5311 H   0  0  0  0  0  0  0  0  0  0  0  0
   -2.2379    1.2618   -0.1671 H   0  0  0  0  0  0  0  0  0  0  0  0
   -0.5364    0.6000   -1.9818 H   0  0  0  0  0  0  0  0  0  0  0  0
   -1.0466   -1.8612   -0.6906 H   0  0  0  0  0  0  0  0  0  0  0  0
   -2.3961   -0.6180   -0.8415 H   0  0  0  0  0  0  0  0  0  0  0  0
  1  2  2  0
  2  3  1  0
  3  4  1  0
  4  5  1  0
  5  6  1  0
  6  7  1  0
  7  8  1  0
  8  9  1  0
  5  3  1  0
  9  6  1  0
  8  3  1  0
  2 10  1  0
  4 11  1  0
  4 12  1  0
  5 13  1  0
  6 14  1  0
  7 15  1  0
  7 16  1  0
  8 17  1  0
  9 18  1  0
  9 19  1  0
M  END
