
     RDKit          3D

 16 17  0  0  0  0  0  0  0  0999 V2000
    2.2582    0.0472    1.3027 O   0  0  0  0  0  0  0  0  0  0  0  0
    2.2525    0.1286    0.0781 C   0  0  0  0  0  0  0  0  0  0  0  0
    0.9912    0.2103   -0.7144 C   0  0  0  0  0  0  0  0  0  0  0  0
   -0.0667    0.9546   -0.1144 C   0  0  0  0  0  0  0  0  0  0  0  0
   -1.1298    0.5131    0.8612 C   0  0  0  0  0  0  0  0  0  0  0  0
   -1.6225   -0.2136   -0.4094 C   0  0  0  0  0  0  0  0  0  0  0  0
   -0.1599   -0.5990   -0.4387 C   0  0  0  0  0  0  0  0  0  0  0  0
    0.0684   -1.4372    0.6859 O   0  0  0  0  0  0  0  0  0  0  0  0
    3.2207    0.1379   -0.3980 H   0  0  0  0  0  0  0  0  0  0  0  0
    1.2280    0.2785   -1.8229 H   0  0  0  0  0  0  0  0  0  0  0  0
   -0.6024    1.6056   -0.8806 H   0  0  0  0  0  0  0  0  0  0  0  0
   -0.8500   -0.1066    1.6937 H   0  0  0  0  0  0  0  0  0  0  0  0
   -1.8260    1.2929    1.1541 H   0  0  0  0  0  0  0  0  0  0  0  0
   -1.9140    0.5160   -1.1712 H   0  0  0  0  0  0  0  0  0  0  0  0
   -2.2795   -1.0473   -0.2058 H   0  0  0  0  0  0  0  0  0  0  0  0
    0.4318   -2.2810    0.3796 H   0  0  0  0  0  0  0  0  0  0  0  0
  1  2  2  0
  2  3  1  0
  3  4  1  0
  4  5  1  0
  5  6  1  0
  6  7  1  0
  7  8  1  0
  7  3  1  0
  7  4  1  0
  2  9  1  0
  3 10  1  0
  4 11  1  0
  5 12  1  0
  5 13  1  0
  6 14  1  0
  6 15  1  0
  8 16  1  0
M  END
