
     RDKit          3D

 19 20  0  0  0  0  0  0  0  0999 V2000
    2.7933   -1.7665    0.3856 O   0  0  0  0  0  0  0  0  0  0  0  0
    2.8713   -0.5637    0.2756 C   0  0  0  0  0  0  0  0  0  0  0  0
    1.8442    0.2499   -0.3983 C   0  0  0  0  0  0  0  0  0  0  0  0
    0.4710    0.0473    0.1693 C   0  0  0  0  0  0  0  0  0  0  0  0
   -0.6039    0.8665   -0.5023 C   0  0  0  0  0  0  0  0  0  0  0  0
   -1.8245    1.1377    0.3233 C   0  0  0  0  0  0  0  0  0  0  0  0
   -2.3973   -0.0561    0.6705 O   0  0  0  0  0  0  0  0  0  0  0  0
   -1.8653   -1.0626   -0.0809 C   0  0  0  0  0  0  0  0  0  0  0  0
   -0.5436   -0.6048   -0.6417 C   0  0  0  0  0  0  0  0  0  0  0  0
    3.7476   -0.1046    0.7103 H   0  0  0  0  0  0  0  0  0  0  0  0
    2.1020    1.3197   -0.3084 H   0  0  0  0  0  0  0  0  0  0  0  0
    1.8275   -0.0336   -1.4941 H   0  0  0  0  0  0  0  0  0  0  0  0
    0.4332    0.0640    1.2981 H   0  0  0  0  0  0  0  0  0  0  0  0
   -0.3826    1.4621   -1.4047 H   0  0  0  0  0  0  0  0  0  0  0  0
   -1.4550    1.6073    1.2851 H   0  0  0  0  0  0  0  0  0  0  0  0
   -2.5192    1.8657   -0.1206 H   0  0  0  0  0  0  0  0  0  0  0  0
   -2.5172   -1.3799   -0.9093 H   0  0  0  0  0  0  0  0  0  0  0  0
   -1.7448   -1.9649    0.5761 H   0  0  0  0  0  0  0  0  0  0  0  0
   -0.2368   -1.0835   -1.5939 H   0  0  0  0  0  0  0  0  0  0  0  0
  1  2  2  0
  2  3  1  0
  3  4  1  0
  4  5  1  0
  5  6  1  0
  6  7  1  0
  7  8  1  0
  8  9  1  0
  9  4  1  0
  9  5  1  0
  2 10  1  0
  3 11  1  0
  3 12  1  0
  4 13  1  0
  5 14  1  0
  6 15  1  0
  6 16  1  0
  8 17  1  0
  8 18  1  0
  9 19  1  0
M  END
