
     RDKit          3D

 15 14  0  0  0  0  0  0  0  0999 V2000
   -3.5996    0.9938   -1.4417 O   0  0  0  0  0  0  0  0  0  0  0  0
   -2.9914    1.3878   -0.4191 C   0  0  0  0  0  0  0  0  0  0  0  0
   -1.9672    0.6317    0.2333 C   0  0  0  0  0  0  0  0  0  0  0  0
   -1.0803    0.0020    0.7852 C   0  0  0  0  0  0  0  0  0  0  0  0
   -0.0157   -0.7362    1.4659 C   0  0  0  0  0  0  0  0  0  0  0  0
    0.8713   -1.2334    0.5392 O   0  0  0  0  0  0  0  0  0  0  0  0
    1.4446   -0.2033   -0.1966 C   0  0  0  0  0  0  0  0  0  0  0  0
    2.4100   -0.7102   -1.2088 C   0  0  0  0  0  0  0  0  0  0  0  0
    2.9641    0.1255   -1.9038 O   0  0  0  0  0  0  0  0  0  0  0  0
   -3.2502    2.3474   -0.0046 H   0  0  0  0  0  0  0  0  0  0  0  0
    0.4458   -0.0681    2.2161 H   0  0  0  0  0  0  0  0  0  0  0  0
   -0.4178   -1.6048    2.0370 H   0  0  0  0  0  0  0  0  0  0  0  0
    1.9296    0.4772    0.5291 H   0  0  0  0  0  0  0  0  0  0  0  0
    0.6436    0.3599   -0.7303 H   0  0  0  0  0  0  0  0  0  0  0  0
    2.6133   -1.7695   -1.3255 H   0  0  0  0  0  0  0  0  0  0  0  0
  1  2  2  0
  2  3  1  0
  3  4  3  0
  4  5  1  0
  5  6  1  0
  6  7  1  0
  7  8  1  0
  8  9  2  0
  2 10  1  0
  5 11  1  0
  5 12  1  0
  7 13  1  0
  7 14  1  0
  8 15  1  0
M  END
