
     RDKit          3D

 14 17  0  0  0  0  0  0  0  0999 V2000
    2.7408    0.8842    0.0427 O   0  0  0  0  0  0  0  0  0  0  0  0
    1.9134    0.2420    0.6701 C   0  0  0  0  0  0  0  0  0  0  0  0
    0.6136    0.0534    0.1812 C   0  0  0  0  0  0  0  0  0  0  0  0
   -0.5278   -0.6562    0.7928 C   0  0  0  0  0  0  0  0  0  0  0  0
   -1.4438    0.2892    0.1917 C   0  0  0  0  0  0  0  0  0  0  0  0
   -1.0582   -0.9140   -0.5258 C   0  0  0  0  0  0  0  0  0  0  0  0
    0.0840   -0.1818   -1.1280 C   0  0  0  0  0  0  0  0  0  0  0  0
   -0.3144    1.0113   -0.4190 C   0  0  0  0  0  0  0  0  0  0  0  0
    2.2414   -0.1782    1.6343 H   0  0  0  0  0  0  0  0  0  0  0  0
   -0.5691   -1.2017    1.6882 H   0  0  0  0  0  0  0  0  0  0  0  0
   -2.3822    0.6448    0.4913 H   0  0  0  0  0  0  0  0  0  0  0  0
   -1.6215   -1.6982   -0.9249 H   0  0  0  0  0  0  0  0  0  0  0  0
    0.5226   -0.3258   -2.0703 H   0  0  0  0  0  0  0  0  0  0  0  0
   -0.1991    2.0312   -0.6245 H   0  0  0  0  0  0  0  0  0  0  0  0
  1  2  2  0
  2  3  1  0
  3  4  1  0
  4  5  1  0
  5  6  1  0
  6  7  1  0
  7  8  1  0
  7  3  1  0
  8  3  1  0
  6  4  1  0
  8  5  1  0
  2  9  1  0
  4 10  1  0
  5 11  1  0
  6 12  1  0
  7 13  1  0
  8 14  1  0
M  END
