
     RDKit          3D

 19 20  0  0  0  0  0  0  0  0999 V2000
    2.4453    0.6264   -2.0635 O   0  0  0  0  0  0  0  0  0  0  0  0
    1.7633    0.1546   -1.1894 C   0  0  0  0  0  0  0  0  0  0  0  0
    1.2232    1.0168   -0.1252 C   0  0  0  0  0  0  0  0  0  0  0  0
    1.3295    0.4290    1.2977 C   0  0  0  0  0  0  0  0  0  0  0  0
    1.7379   -0.8895    1.4283 O   0  0  0  0  0  0  0  0  0  0  0  0
    0.0149    0.6492    0.6426 C   0  0  0  0  0  0  0  0  0  0  0  0
   -0.8408   -0.5318    0.2795 C   0  0  0  0  0  0  0  0  0  0  0  0
   -1.4950   -0.6075   -1.0577 C   0  0  0  0  0  0  0  0  0  0  0  0
   -2.3591   -0.2234    0.1047 C   0  0  0  0  0  0  0  0  0  0  0  0
    1.5540   -0.8953   -1.1937 H   0  0  0  0  0  0  0  0  0  0  0  0
    1.4884    2.1027   -0.1981 H   0  0  0  0  0  0  0  0  0  0  0  0
    1.6915    1.1513    2.0780 H   0  0  0  0  0  0  0  0  0  0  0  0
    1.3507   -1.4641    0.7478 H   0  0  0  0  0  0  0  0  0  0  0  0
   -0.5575    1.5175    1.0692 H   0  0  0  0  0  0  0  0  0  0  0  0
   -0.6818   -1.4901    0.8135 H   0  0  0  0  0  0  0  0  0  0  0  0
   -1.6506   -1.6127   -1.5071 H   0  0  0  0  0  0  0  0  0  0  0  0
   -1.2892    0.1845   -1.8189 H   0  0  0  0  0  0  0  0  0  0  0  0
   -3.0783   -0.9576    0.4600 H   0  0  0  0  0  0  0  0  0  0  0  0
   -2.6463    0.8401    0.2324 H   0  0  0  0  0  0  0  0  0  0  0  0
  1  2  2  0
  2  3  1  0
  3  4  1  0
  4  5  1  0
  4  6  1  0
  6  7  1  0
  7  8  1  0
  8  9  1  0
  6  3  1  0
  9  7  1  0
  2 10  1  0
  3 11  1  0
  4 12  1  0
  5 13  1  0
  6 14  1  0
  7 15  1  0
  8 16  1  0
  8 17  1  0
  9 18  1  0
  9 19  1  0
M  END
