
     RDKit          3D

 13 13  0  0  0  0  0  0  0  0999 V2000
    2.8623    0.8278   -0.0950 O   0  0  0  0  0  0  0  0  0  0  0  0
    2.1088   -0.1632   -0.2031 C   0  0  0  0  0  0  0  0  0  0  0  0
    0.6536    0.0437   -0.0418 C   0  0  0  0  0  0  0  0  0  0  0  0
    0.0638    1.2008    0.2108 C   0  0  0  0  0  0  0  0  0  0  0  0
   -1.3665    0.9967    0.2982 C   0  0  0  0  0  0  0  0  0  0  0  0
   -2.2696    1.8460    0.5241 O   0  0  0  0  0  0  0  0  0  0  0  0
   -1.6246   -0.4098    0.0750 C   0  0  0  0  0  0  0  0  0  0  0  0
   -2.7672   -1.0002    0.0702 O   0  0  0  0  0  0  0  0  0  0  0  0
   -0.3244   -1.0508   -0.1487 C   0  0  0  0  0  0  0  0  0  0  0  0
    2.4768   -1.1486   -0.4067 H   0  0  0  0  0  0  0  0  0  0  0  0
    0.6044    2.1406    0.3283 H   0  0  0  0  0  0  0  0  0  0  0  0
   -0.1536   -1.8612    0.5864 H   0  0  0  0  0  0  0  0  0  0  0  0
   -0.2637   -1.4218   -1.1978 H   0  0  0  0  0  0  0  0  0  0  0  0
  1  2  2  0
  2  3  1  0
  3  4  2  0
  4  5  1  0
  5  6  2  0
  5  7  1  0
  7  8  2  0
  7  9  1  0
  9  3  1  0
  2 10  1  0
  4 11  1  0
  9 12  1  0
  9 13  1  0
M  END
