
     RDKit          3D

 17 19  0  0  0  0  0  0  0  0999 V2000
    2.6462   -1.1125   -0.4661 O   0  0  0  0  0  0  0  0  0  0  0  0
    2.1618   -0.4767    0.4543 C   0  0  0  0  0  0  0  0  0  0  0  0
    0.7419   -0.1527    0.4094 C   0  0  0  0  0  0  0  0  0  0  0  0
   -0.1859   -1.2965   -0.0172 C   0  0  0  0  0  0  0  0  0  0  0  0
   -1.4985   -0.6294   -0.3435 C   0  0  0  0  0  0  0  0  0  0  0  0
   -1.1439    0.8368   -0.5530 C   0  0  0  0  0  0  0  0  0  0  0  0
   -0.4647    1.4457    0.6389 C   0  0  0  0  0  0  0  0  0  0  0  0
    0.2248    0.5685    1.4676 O   0  0  0  0  0  0  0  0  0  0  0  0
    0.2999    0.9437   -0.5049 C   0  0  0  0  0  0  0  0  0  0  0  0
    2.7558   -0.1540    1.2892 H   0  0  0  0  0  0  0  0  0  0  0  0
   -0.3086   -2.0461    0.7676 H   0  0  0  0  0  0  0  0  0  0  0  0
    0.2349   -1.6950   -0.9530 H   0  0  0  0  0  0  0  0  0  0  0  0
   -1.9693   -1.0104   -1.2520 H   0  0  0  0  0  0  0  0  0  0  0  0
   -2.1537   -0.6646    0.5556 H   0  0  0  0  0  0  0  0  0  0  0  0
   -1.7194    1.4398   -1.2441 H   0  0  0  0  0  0  0  0  0  0  0  0
   -0.5748    2.4988    0.8912 H   0  0  0  0  0  0  0  0  0  0  0  0
    0.9534    1.5045   -1.1401 H   0  0  0  0  0  0  0  0  0  0  0  0
  1  2  2  0
  2  3  1  0
  3  4  1  0
  4  5  1  0
  5  6  1  0
  6  7  1  0
  7  8  1  0
  7  9  1  0
  8  3  1  0
  9  3  1  0
  9  6  1  0
  2 10  1  0
  4 11  1  0
  4 12  1  0
  5 13  1  0
  5 14  1  0
  6 15  1  0
  7 16  1  0
  9 17  1  0
M  END
