
     RDKit          3D

 15 16  0  0  0  0  0  0  0  0999 V2000
    2.8711    0.5045   -0.7055 O   0  0  0  0  0  0  0  0  0  0  0  0
    2.2426   -0.2892   -0.0326 C   0  0  0  0  0  0  0  0  0  0  0  0
    0.8032   -0.1881    0.0434 C   0  0  0  0  0  0  0  0  0  0  0  0
    0.2963    1.2052    0.2961 C   0  0  0  0  0  0  0  0  0  0  0  0
   -0.9183    1.2442   -0.2140 C   0  0  0  0  0  0  0  0  0  0  0  0
   -1.1522   -0.1272   -0.7229 C   0  0  0  0  0  0  0  0  0  0  0  0
   -1.1877   -1.0309    0.4772 C   0  0  0  0  0  0  0  0  0  0  0  0
    0.1654   -1.1192    0.8222 O   0  0  0  0  0  0  0  0  0  0  0  0
    0.1523   -0.4238   -1.1991 O   0  0  0  0  0  0  0  0  0  0  0  0
    2.7712   -1.0653    0.5037 H   0  0  0  0  0  0  0  0  0  0  0  0
    0.7995    2.0174    0.7875 H   0  0  0  0  0  0  0  0  0  0  0  0
   -1.5782    2.0760   -0.2497 H   0  0  0  0  0  0  0  0  0  0  0  0
   -1.9222   -0.2482   -1.4450 H   0  0  0  0  0  0  0  0  0  0  0  0
   -1.6497   -2.0037    0.2945 H   0  0  0  0  0  0  0  0  0  0  0  0
   -1.6933   -0.5519    1.3443 H   0  0  0  0  0  0  0  0  0  0  0  0
  1  2  2  0
  2  3  1  0
  3  4  1  0
  4  5  2  0
  5  6  1  0
  6  7  1  0
  7  8  1  0
  6  9  1  0
  8  3  1  0
  9  3  1  0
  2 10  1  0
  4 11  1  0
  5 12  1  0
  6 13  1  0
  7 14  1  0
  7 15  1  0
M  END
