
     RDKit          3D

 17 18  0  0  0  0  0  0  0  0999 V2000
   -2.0507    1.8796   -0.4040 O   0  0  0  0  0  0  0  0  0  0  0  0
   -1.8352    0.9101    0.3409 C   0  0  0  0  0  0  0  0  0  0  0  0
   -0.6372    0.1825    0.2551 C   0  0  0  0  0  0  0  0  0  0  0  0
    0.2444   -0.0661    1.4049 C   0  0  0  0  0  0  0  0  0  0  0  0
    1.2206   -0.8097    0.8733 C   0  0  0  0  0  0  0  0  0  0  0  0
    0.8881   -0.8198   -0.5717 C   0  0  0  0  0  0  0  0  0  0  0  0
   -0.6083   -1.1590   -0.4953 C   0  0  0  0  0  0  0  0  0  0  0  0
    0.4033    0.6025   -0.7941 C   0  0  0  0  0  0  0  0  0  0  0  0
    1.2168    1.5815   -0.2509 O   0  0  0  0  0  0  0  0  0  0  0  0
   -2.6099    0.6815    1.0306 H   0  0  0  0  0  0  0  0  0  0  0  0
    0.0840    0.2938    2.4089 H   0  0  0  0  0  0  0  0  0  0  0  0
    2.0650   -1.3021    1.3432 H   0  0  0  0  0  0  0  0  0  0  0  0
    1.4860   -1.3010   -1.2811 H   0  0  0  0  0  0  0  0  0  0  0  0
   -0.8402   -2.0297    0.1082 H   0  0  0  0  0  0  0  0  0  0  0  0
   -1.0668   -1.0457   -1.4751 H   0  0  0  0  0  0  0  0  0  0  0  0
   -0.0445    0.8121   -1.7647 H   0  0  0  0  0  0  0  0  0  0  0  0
    2.0847    1.5895   -0.7283 H   0  0  0  0  0  0  0  0  0  0  0  0
  1  2  2  0
  2  3  1  0
  3  4  1  0
  4  5  2  0
  5  6  1  0
  6  7  1  0
  6  8  1  0
  8  9  1  0
  7  3  1  0
  8  3  1  0
  2 10  1  0
  4 11  1  0
  5 12  1  0
  6 13  1  0
  7 14  1  0
  7 15  1  0
  8 16  1  0
  9 17  1  0
M  END
