
     RDKit          3D

 15 15  0  0  0  0  0  0  0  0999 V2000
    3.7107    2.0358   -1.4703 O   0  0  0  0  0  0  0  0  0  0  0  0
    3.6074    0.9051   -0.9194 C   0  0  0  0  0  0  0  0  0  0  0  0
    2.3414    0.3578   -0.5181 C   0  0  0  0  0  0  0  0  0  0  0  0
    1.2610   -0.1000   -0.1883 C   0  0  0  0  0  0  0  0  0  0  0  0
   -0.0422   -0.6383    0.2192 C   0  0  0  0  0  0  0  0  0  0  0  0
   -0.5763    0.0396    1.2968 O   0  0  0  0  0  0  0  0  0  0  0  0
   -1.9097    0.3033    1.0138 C   0  0  0  0  0  0  0  0  0  0  0  0
   -2.1684   -0.6017   -0.1816 C   0  0  0  0  0  0  0  0  0  0  0  0
   -0.9239   -0.5007   -0.8424 O   0  0  0  0  0  0  0  0  0  0  0  0
    4.5326    0.3656   -0.7645 H   0  0  0  0  0  0  0  0  0  0  0  0
    0.0366   -1.7492    0.4067 H   0  0  0  0  0  0  0  0  0  0  0  0
   -1.9794    1.3826    0.6897 H   0  0  0  0  0  0  0  0  0  0  0  0
   -2.5482    0.0766    1.8714 H   0  0  0  0  0  0  0  0  0  0  0  0
   -2.3427   -1.6212    0.1774 H   0  0  0  0  0  0  0  0  0  0  0  0
   -2.9989   -0.2553   -0.7903 H   0  0  0  0  0  0  0  0  0  0  0  0
  1  2  2  0
  2  3  1  0
  3  4  3  0
  4  5  1  0
  5  6  1  0
  6  7  1  0
  7  8  1  0
  8  9  1  0
  9  5  1  0
  2 10  1  0
  5 11  1  0
  7 12  1  0
  7 13  1  0
  8 14  1  0
  8 15  1  0
M  END
