
     RDKit          3D

 19 21  0  0  0  0  0  0  0  0999 V2000
    3.2507    0.1650    0.3956 O   0  0  0  0  0  0  0  0  0  0  0  0
    2.3410    0.6663   -0.2193 C   0  0  0  0  0  0  0  0  0  0  0  0
    0.9577    0.2500    0.0512 C   0  0  0  0  0  0  0  0  0  0  0  0
    0.7085   -1.1861    0.3957 C   0  0  0  0  0  0  0  0  0  0  0  0
   -0.5886   -1.1065   -0.4052 C   0  0  0  0  0  0  0  0  0  0  0  0
   -1.6633   -0.5209    0.5005 C   0  0  0  0  0  0  0  0  0  0  0  0
   -1.4145    0.9678    0.5445 C   0  0  0  0  0  0  0  0  0  0  0  0
   -0.1487    1.1901   -0.2513 C   0  0  0  0  0  0  0  0  0  0  0  0
    0.0011    0.0549   -1.1324 C   0  0  0  0  0  0  0  0  0  0  0  0
    2.5325    1.4142   -0.9627 H   0  0  0  0  0  0  0  0  0  0  0  0
    0.5572   -1.4117    1.4624 H   0  0  0  0  0  0  0  0  0  0  0  0
    1.4868   -1.8272   -0.1033 H   0  0  0  0  0  0  0  0  0  0  0  0
   -0.8592   -1.9924   -0.9651 H   0  0  0  0  0  0  0  0  0  0  0  0
   -2.6807   -0.7793    0.1682 H   0  0  0  0  0  0  0  0  0  0  0  0
   -1.4858   -0.9216    1.5417 H   0  0  0  0  0  0  0  0  0  0  0  0
   -2.2804    1.5145    0.1348 H   0  0  0  0  0  0  0  0  0  0  0  0
   -1.2159    1.3227    1.5737 H   0  0  0  0  0  0  0  0  0  0  0  0
    0.1214    2.1803   -0.5968 H   0  0  0  0  0  0  0  0  0  0  0  0
    0.3802    0.0200   -2.1321 H   0  0  0  0  0  0  0  0  0  0  0  0
  1  2  2  0
  2  3  1  0
  3  4  1  0
  4  5  1  0
  5  6  1  0
  6  7  1  0
  7  8  1  0
  8  9  1  0
  8  3  1  0
  9  3  1  0
  9  5  1  0
  2 10  1  0
  4 11  1  0
  4 12  1  0
  5 13  1  0
  6 14  1  0
  6 15  1  0
  7 16  1  0
  7 17  1  0
  8 18  1  0
  9 19  1  0
M  END
