
     RDKit          3D

 16 17  0  0  0  0  0  0  0  0999 V2000
    2.8666   -0.0839   -0.7487 O   0  0  0  0  0  0  0  0  0  0  0  0
    2.0639    0.1090    0.1774 C   0  0  0  0  0  0  0  0  0  0  0  0
    0.7296    0.0550    0.0152 C   0  0  0  0  0  0  0  0  0  0  0  0
   -0.2173    1.1110   -0.4618 C   0  0  0  0  0  0  0  0  0  0  0  0
   -1.1170   -0.0716   -0.1929 C   0  0  0  0  0  0  0  0  0  0  0  0
   -2.3530   -0.1525   -0.2979 O   0  0  0  0  0  0  0  0  0  0  0  0
   -0.0492   -0.9054   -0.8561 C   0  0  0  0  0  0  0  0  0  0  0  0
   -0.2890   -0.2547    1.0803 C   0  0  0  0  0  0  0  0  0  0  0  0
    2.5755    0.3266    1.1342 H   0  0  0  0  0  0  0  0  0  0  0  0
   -0.4318    1.9293    0.2656 H   0  0  0  0  0  0  0  0  0  0  0  0
   -0.1092    1.4139   -1.5049 H   0  0  0  0  0  0  0  0  0  0  0  0
   -2.9022   -0.0795    0.5162 H   0  0  0  0  0  0  0  0  0  0  0  0
    0.0646   -0.7786   -1.9333 H   0  0  0  0  0  0  0  0  0  0  0  0
   -0.0766   -1.9346   -0.4631 H   0  0  0  0  0  0  0  0  0  0  0  0
   -0.2818   -1.2653    1.4911 H   0  0  0  0  0  0  0  0  0  0  0  0
   -0.4733    0.5812    1.7788 H   0  0  0  0  0  0  0  0  0  0  0  0
  1  2  2  0
  2  3  1  0
  3  4  1  0
  4  5  1  0
  5  6  1  0
  5  7  1  0
  5  8  1  0
  7  3  1  0
  8  3  1  0
  2  9  1  0
  4 10  1  0
  4 11  1  0
  6 12  1  0
  7 13  1  0
  7 14  1  0
  8 15  1  0
  8 16  1  0
M  END
