
     RDKit          3D

 15 15  0  0  0  0  0  0  0  0999 V2000
   -2.6312   -0.6549    0.0147 O   0  0  0  0  0  0  0  0  0  0  0  0
   -1.5640   -1.2506    0.3103 C   0  0  0  0  0  0  0  0  0  0  0  0
   -0.2824   -0.5969    0.0682 C   0  0  0  0  0  0  0  0  0  0  0  0
    0.8993   -1.1254    0.3384 C   0  0  0  0  0  0  0  0  0  0  0  0
    1.8978   -0.1052   -0.0732 C   0  0  0  0  0  0  0  0  0  0  0  0
    1.2133    1.0769   -0.0037 O   0  0  0  0  0  0  0  0  0  0  0  0
   -0.0654    0.7596   -0.5159 C   0  0  0  0  0  0  0  0  0  0  0  0
   -1.0407    1.7155    0.0204 C   0  0  0  0  0  0  0  0  0  0  0  0
   -0.7045    2.6102    0.7829 O   0  0  0  0  0  0  0  0  0  0  0  0
   -1.6521   -2.2338    0.7362 H   0  0  0  0  0  0  0  0  0  0  0  0
    1.0474   -2.1025    0.7696 H   0  0  0  0  0  0  0  0  0  0  0  0
    2.8064   -0.1411    0.5539 H   0  0  0  0  0  0  0  0  0  0  0  0
    2.1435   -0.3517   -1.1471 H   0  0  0  0  0  0  0  0  0  0  0  0
    0.0067    0.7426   -1.6146 H   0  0  0  0  0  0  0  0  0  0  0  0
   -2.0741    1.6573   -0.2401 H   0  0  0  0  0  0  0  0  0  0  0  0
  1  2  2  0
  2  3  1  0
  3  4  2  0
  4  5  1  0
  5  6  1  0
  6  7  1  0
  7  8  1  0
  8  9  2  0
  7  3  1  0
  2 10  1  0
  4 11  1  0
  5 12  1  0
  5 13  1  0
  7 14  1  0
  8 15  1  0
M  END
