
     RDKit          3D

 17 17  0  0  0  0  0  0  0  0999 V2000
    1.9445   -1.6911    0.6550 O   0  0  0  0  0  0  0  0  0  0  0  0
    1.5648   -0.5667    0.4102 C   0  0  0  0  0  0  0  0  0  0  0  0
    0.5873   -0.3759   -0.6718 C   0  0  0  0  0  0  0  0  0  0  0  0
   -0.6552   -1.1896   -0.3097 C   0  0  0  0  0  0  0  0  0  0  0  0
   -1.4607   -0.2817    0.6032 C   0  0  0  0  0  0  0  0  0  0  0  0
   -0.6278    0.9752    0.7187 C   0  0  0  0  0  0  0  0  0  0  0  0
   -0.5101    1.7192    1.6508 O   0  0  0  0  0  0  0  0  0  0  0  0
    0.0015    1.0249   -0.6494 C   0  0  0  0  0  0  0  0  0  0  0  0
    0.9079    2.0151   -0.7972 O   0  0  0  0  0  0  0  0  0  0  0  0
    1.9591    0.2400    0.9941 H   0  0  0  0  0  0  0  0  0  0  0  0
    0.9970   -0.6667   -1.6314 H   0  0  0  0  0  0  0  0  0  0  0  0
   -0.3058   -2.1106    0.2313 H   0  0  0  0  0  0  0  0  0  0  0  0
   -1.2100   -1.4308   -1.2340 H   0  0  0  0  0  0  0  0  0  0  0  0
   -2.3948    0.0602    0.0693 H   0  0  0  0  0  0  0  0  0  0  0  0
   -1.6746   -0.7268    1.5735 H   0  0  0  0  0  0  0  0  0  0  0  0
   -0.8245    1.0880   -1.3622 H   0  0  0  0  0  0  0  0  0  0  0  0
    1.7014    1.9175   -0.2505 H   0  0  0  0  0  0  0  0  0  0  0  0
  1  2  2  0
  2  3  1  0
  3  4  1  0
  4  5  1  0
  5  6  1  0
  6  7  2  0
  6  8  1  0
  8  9  1  0
  8  3  1  0
  2 10  1  0
  3 11  1  0
  4 12  1  0
  4 13  1  0
  5 14  1  0
  5 15  1  0
  8 16  1  0
  9 17  1  0
M  END
