
     RDKit          3D

 17 18  0  0  0  0  0  0  0  0999 V2000
    2.1399    1.8805    0.0423 O   0  0  0  0  0  0  0  0  0  0  0  0
    2.4699    0.7142   -0.0550 C   0  0  0  0  0  0  0  0  0  0  0  0
    1.5589   -0.4344    0.1949 C   0  0  0  0  0  0  0  0  0  0  0  0
    0.1843    0.0590    0.5815 C   0  0  0  0  0  0  0  0  0  0  0  0
   -0.8952   -0.9195    0.8799 C   0  0  0  0  0  0  0  0  0  0  0  0
   -1.9171   -0.1000    0.0997 C   0  0  0  0  0  0  0  0  0  0  0  0
   -2.6908    0.7368    0.9191 O   0  0  0  0  0  0  0  0  0  0  0  0
   -0.7169    0.6191   -0.5018 C   0  0  0  0  0  0  0  0  0  0  0  0
   -0.0320    1.3883    0.3840 O   0  0  0  0  0  0  0  0  0  0  0  0
    3.4892    0.4928   -0.3411 H   0  0  0  0  0  0  0  0  0  0  0  0
    2.0233   -1.0445    0.9945 H   0  0  0  0  0  0  0  0  0  0  0  0
    1.4705   -0.9967   -0.7555 H   0  0  0  0  0  0  0  0  0  0  0  0
   -1.1528   -1.1070    1.9271 H   0  0  0  0  0  0  0  0  0  0  0  0
   -0.7118   -1.8669    0.2951 H   0  0  0  0  0  0  0  0  0  0  0  0
   -2.5317   -0.6593   -0.6045 H   0  0  0  0  0  0  0  0  0  0  0  0
   -2.2984    0.8437    1.8152 H   0  0  0  0  0  0  0  0  0  0  0  0
   -0.3893    0.3939   -1.5097 H   0  0  0  0  0  0  0  0  0  0  0  0
  1  2  2  0
  2  3  1  0
  3  4  1  0
  4  5  1  0
  5  6  1  0
  6  7  1  0
  6  8  1  0
  8  9  1  0
  8  4  1  0
  9  4  1  0
  2 10  1  0
  3 11  1  0
  3 12  1  0
  5 13  1  0
  5 14  1  0
  6 15  1  0
  7 16  1  0
  8 17  1  0
M  END
