
     RDKit          3D

 18 17  0  0  0  0  0  0  0  0999 V2000
    1.0346    2.3405    0.1701 O   0  0  0  0  0  0  0  0  0  0  0  0
    1.1936    1.4795   -0.6651 C   0  0  0  0  0  0  0  0  0  0  0  0
    0.4999    0.1823   -0.4822 C   0  0  0  0  0  0  0  0  0  0  0  0
    1.2995   -0.6033    0.5439 C   0  0  0  0  0  0  0  0  0  0  0  0
    2.6007   -0.8260    0.1246 O   0  0  0  0  0  0  0  0  0  0  0  0
   -0.8862    0.5083    0.0681 C   0  0  0  0  0  0  0  0  0  0  0  0
   -1.6955   -0.7347    0.2985 C   0  0  0  0  0  0  0  0  0  0  0  0
   -2.9351   -0.3380    0.7973 O   0  0  0  0  0  0  0  0  0  0  0  0
    1.8151    1.6444   -1.5118 H   0  0  0  0  0  0  0  0  0  0  0  0
    0.4118   -0.3996   -1.4182 H   0  0  0  0  0  0  0  0  0  0  0  0
    1.3015   -0.0863    1.5184 H   0  0  0  0  0  0  0  0  0  0  0  0
    0.8276   -1.6085    0.7249 H   0  0  0  0  0  0  0  0  0  0  0  0
    2.9893   -1.5492    0.6741 H   0  0  0  0  0  0  0  0  0  0  0  0
   -1.4388    1.1454   -0.6511 H   0  0  0  0  0  0  0  0  0  0  0  0
   -0.7617    1.0705    0.9990 H   0  0  0  0  0  0  0  0  0  0  0  0
   -1.7942   -1.3009   -0.6532 H   0  0  0  0  0  0  0  0  0  0  0  0
   -1.1980   -1.4108    1.0382 H   0  0  0  0  0  0  0  0  0  0  0  0
   -3.2642    0.4863    0.3839 H   0  0  0  0  0  0  0  0  0  0  0  0
  1  2  2  0
  2  3  1  0
  3  4  1  0
  4  5  1  0
  3  6  1  0
  6  7  1  0
  7  8  1  0
  2  9  1  0
  3 10  1  0
  4 11  1  0
  4 12  1  0
  5 13  1  0
  6 14  1  0
  6 15  1  0
  7 16  1  0
  7 17  1  0
  8 18  1  0
M  END
