
     RDKit          3D

 19 19  0  0  0  0  0  0  0  0999 V2000
    3.0199   -0.6456   -1.6498 O   0  0  0  0  0  0  0  0  0  0  0  0
    2.2626   -0.7354   -0.7135 C   0  0  0  0  0  0  0  0  0  0  0  0
    1.3587    0.3866   -0.4060 C   0  0  0  0  0  0  0  0  0  0  0  0
    0.4947    0.0796    0.7971 C   0  0  0  0  0  0  0  0  0  0  0  0
   -0.3565    1.2635    1.0027 C   0  0  0  0  0  0  0  0  0  0  0  0
   -1.5294    1.0675    0.4519 C   0  0  0  0  0  0  0  0  0  0  0  0
   -1.5604   -0.2749   -0.1714 C   0  0  0  0  0  0  0  0  0  0  0  0
   -1.3186   -0.2279   -1.5479 O   0  0  0  0  0  0  0  0  0  0  0  0
   -0.4602   -1.0359    0.5536 C   0  0  0  0  0  0  0  0  0  0  0  0
    2.2493   -1.6240   -0.1125 H   0  0  0  0  0  0  0  0  0  0  0  0
    2.0155    1.2525   -0.0968 H   0  0  0  0  0  0  0  0  0  0  0  0
    0.7877    0.7473   -1.2715 H   0  0  0  0  0  0  0  0  0  0  0  0
    1.1715   -0.1264    1.6454 H   0  0  0  0  0  0  0  0  0  0  0  0
   -0.0500    2.1991    1.5504 H   0  0  0  0  0  0  0  0  0  0  0  0
   -2.3802    1.7494    0.4271 H   0  0  0  0  0  0  0  0  0  0  0  0
   -2.5502   -0.7076    0.0187 H   0  0  0  0  0  0  0  0  0  0  0  0
   -2.2083   -0.1207   -1.9788 H   0  0  0  0  0  0  0  0  0  0  0  0
   -0.0610   -1.8699   -0.0120 H   0  0  0  0  0  0  0  0  0  0  0  0
   -0.8851   -1.3772    1.5133 H   0  0  0  0  0  0  0  0  0  0  0  0
  1  2  2  0
  2  3  1  0
  3  4  1  0
  4  5  1  0
  5  6  2  0
  6  7  1  0
  7  8  1  0
  7  9  1  0
  9  4  1  0
  2 10  1  0
  3 11  1  0
  3 12  1  0
  4 13  1  0
  5 14  1  0
  6 15  1  0
  7 16  1  0
  8 17  1  0
  9 18  1  0
  9 19  1  0
M  END
