
     RDKit          3D

 13 12  0  0  0  0  0  0  0  0999 V2000
   -2.7841    0.7196    0.9411 O   0  0  0  0  0  0  0  0  0  0  0  0
   -2.2495    0.3859   -0.1100 C   0  0  0  0  0  0  0  0  0  0  0  0
   -0.8423    0.6958   -0.4475 C   0  0  0  0  0  0  0  0  0  0  0  0
    0.1263   -0.2980    0.2154 C   0  0  0  0  0  0  0  0  0  0  0  0
    1.4199    0.1023   -0.1823 O   0  0  0  0  0  0  0  0  0  0  0  0
    2.5774   -0.5279    0.1879 C   0  0  0  0  0  0  0  0  0  0  0  0
    2.5238   -1.5335    0.9300 O   0  0  0  0  0  0  0  0  0  0  0  0
   -2.8638   -0.1713   -0.8214 H   0  0  0  0  0  0  0  0  0  0  0  0
   -0.6890    0.7127   -1.5443 H   0  0  0  0  0  0  0  0  0  0  0  0
   -0.6138    1.7248   -0.0757 H   0  0  0  0  0  0  0  0  0  0  0  0
   -0.1302   -1.2844   -0.2541 H   0  0  0  0  0  0  0  0  0  0  0  0
   -0.0390   -0.3208    1.2883 H   0  0  0  0  0  0  0  0  0  0  0  0
    3.5642   -0.2051   -0.1273 H   0  0  0  0  0  0  0  0  0  0  0  0
  1  2  2  0
  2  3  1  0
  3  4  1  0
  4  5  1  0
  5  6  1  0
  6  7  2  0
  2  8  1  0
  3  9  1  0
  3 10  1  0
  4 11  1  0
  4 12  1  0
  6 13  1  0
M  END
