
     RDKit          3D

 17 18  0  0  0  0  0  0  0  0999 V2000
    2.1904    1.5159   -0.7450 O   0  0  0  0  0  0  0  0  0  0  0  0
    1.5832    0.4832   -0.9620 C   0  0  0  0  0  0  0  0  0  0  0  0
    0.3536    0.1765   -0.3256 C   0  0  0  0  0  0  0  0  0  0  0  0
   -0.4661    1.3154    0.2135 C   0  0  0  0  0  0  0  0  0  0  0  0
   -1.3515    0.7274    1.1222 O   0  0  0  0  0  0  0  0  0  0  0  0
   -1.0678   -0.6355    1.1584 C   0  0  0  0  0  0  0  0  0  0  0  0
    0.4633   -0.6321    0.9842 C   0  0  0  0  0  0  0  0  0  0  0  0
   -1.4413   -1.2474   -0.0466 O   0  0  0  0  0  0  0  0  0  0  0  0
   -0.5988   -0.7460   -1.0390 C   0  0  0  0  0  0  0  0  0  0  0  0
    2.0276   -0.2018   -1.6718 H   0  0  0  0  0  0  0  0  0  0  0  0
    0.1178    2.1014    0.6904 H   0  0  0  0  0  0  0  0  0  0  0  0
   -1.0950    1.6841   -0.6456 H   0  0  0  0  0  0  0  0  0  0  0  0
   -1.3829   -1.1506    2.0397 H   0  0  0  0  0  0  0  0  0  0  0  0
    0.9619   -0.0389    1.7418 H   0  0  0  0  0  0  0  0  0  0  0  0
    0.8560   -1.6297    0.7997 H   0  0  0  0  0  0  0  0  0  0  0  0
   -1.1419   -0.1490   -1.7944 H   0  0  0  0  0  0  0  0  0  0  0  0
   -0.0084   -1.5730   -1.5198 H   0  0  0  0  0  0  0  0  0  0  0  0
  1  2  2  0
  2  3  1  0
  3  4  1  0
  4  5  1  0
  5  6  1  0
  6  7  1  0
  6  8  1  0
  8  9  1  0
  7  3  1  0
  9  3  1  0
  2 10  1  0
  4 11  1  0
  4 12  1  0
  6 13  1  0
  7 14  1  0
  7 15  1  0
  9 16  1  0
  9 17  1  0
M  END
