
     RDKit          3D

 17 17  0  0  0  0  0  0  0  0999 V2000
    2.5961   -0.4659   -4.0720 O   0  0  0  0  0  0  0  0  0  0  0  0
    2.2116    0.4570   -3.3157 C   0  0  0  0  0  0  0  0  0  0  0  0
    1.2179    0.2782   -2.3069 C   0  0  0  0  0  0  0  0  0  0  0  0
    0.3690    0.1215   -1.4143 C   0  0  0  0  0  0  0  0  0  0  0  0
   -0.6357   -0.0738   -0.3896 C   0  0  0  0  0  0  0  0  0  0  0  0
   -0.7074   -1.4086    0.2733 C   0  0  0  0  0  0  0  0  0  0  0  0
   -0.1594   -0.1979    1.0146 C   0  0  0  0  0  0  0  0  0  0  0  0
   -0.9934    0.2065    2.1814 C   0  0  0  0  0  0  0  0  0  0  0  0
   -1.3043    1.5762    2.0793 O   0  0  0  0  0  0  0  0  0  0  0  0
    2.6975    1.4335   -3.4818 H   0  0  0  0  0  0  0  0  0  0  0  0
   -1.5854    0.4846   -0.5270 H   0  0  0  0  0  0  0  0  0  0  0  0
    0.0253   -2.1937    0.1198 H   0  0  0  0  0  0  0  0  0  0  0  0
   -1.7202   -1.7735    0.5278 H   0  0  0  0  0  0  0  0  0  0  0  0
    0.9321   -0.1237    1.1775 H   0  0  0  0  0  0  0  0  0  0  0  0
   -0.4112    0.0272    3.1108 H   0  0  0  0  0  0  0  0  0  0  0  0
   -1.9213   -0.3939    2.2766 H   0  0  0  0  0  0  0  0  0  0  0  0
   -0.6112    2.0461    2.6005 H   0  0  0  0  0  0  0  0  0  0  0  0
  1  2  2  0
  2  3  1  0
  3  4  3  0
  4  5  1  0
  5  6  1  0
  6  7  1  0
  7  8  1  0
  8  9  1  0
  7  5  1  0
  2 10  1  0
  5 11  1  0
  6 12  1  0
  6 13  1  0
  7 14  1  0
  8 15  1  0
  8 16  1  0
  9 17  1  0
M  END
