
     RDKit          3D

 17 18  0  0  0  0  0  0  0  0999 V2000
    3.0606   -1.1011    0.4310 O   0  0  0  0  0  0  0  0  0  0  0  0
    2.1217   -0.3931    0.7283 C   0  0  0  0  0  0  0  0  0  0  0  0
    1.0893   -0.0950   -0.2620 C   0  0  0  0  0  0  0  0  0  0  0  0
    0.6797    1.3466   -0.3854 C   0  0  0  0  0  0  0  0  0  0  0  0
   -0.5599    0.8615   -1.0588 C   0  0  0  0  0  0  0  0  0  0  0  0
   -0.3086   -0.0017    0.1778 C   0  0  0  0  0  0  0  0  0  0  0  0
   -1.1716   -0.9831    0.6158 C   0  0  0  0  0  0  0  0  0  0  0  0
   -2.4856   -0.4812    0.7885 O   0  0  0  0  0  0  0  0  0  0  0  0
    0.0088    1.1797    0.8152 O   0  0  0  0  0  0  0  0  0  0  0  0
    2.0421    0.0197    1.7209 H   0  0  0  0  0  0  0  0  0  0  0  0
    1.2041   -0.5900   -1.2560 H   0  0  0  0  0  0  0  0  0  0  0  0
    1.2703    2.1187   -0.6534 H   0  0  0  0  0  0  0  0  0  0  0  0
   -0.3310    0.3531   -2.0048 H   0  0  0  0  0  0  0  0  0  0  0  0
   -1.4525    1.4788   -1.0131 H   0  0  0  0  0  0  0  0  0  0  0  0
   -0.9138   -1.4550    1.5619 H   0  0  0  0  0  0  0  0  0  0  0  0
   -1.2960   -1.8120   -0.1268 H   0  0  0  0  0  0  0  0  0  0  0  0
   -2.9578   -0.4461   -0.0790 H   0  0  0  0  0  0  0  0  0  0  0  0
  1  2  2  0
  2  3  1  0
  3  4  1  0
  4  5  1  0
  5  6  1  0
  6  7  1  0
  7  8  1  0
  6  9  1  0
  6  3  1  0
  9  4  1  0
  2 10  1  0
  3 11  1  0
  4 12  1  0
  5 13  1  0
  5 14  1  0
  7 15  1  0
  7 16  1  0
  8 17  1  0
M  END
