
     RDKit          3D

 21 22  0  0  0  0  0  0  0  0999 V2000
    2.7621    2.2282    0.0924 O   0  0  0  0  0  0  0  0  0  0  0  0
    2.6071    1.3020   -0.6681 C   0  0  0  0  0  0  0  0  0  0  0  0
    2.0545    0.0441   -0.1461 C   0  0  0  0  0  0  0  0  0  0  0  0
    0.7081   -0.2857   -0.6813 C   0  0  0  0  0  0  0  0  0  0  0  0
    0.1491   -1.6269   -0.1026 C   0  0  0  0  0  0  0  0  0  0  0  0
   -0.5444   -0.3312    0.0094 C   0  0  0  0  0  0  0  0  0  0  0  0
   -1.8829   -0.0988   -0.6387 C   0  0  0  0  0  0  0  0  0  0  0  0
   -2.3239    0.5617    0.6556 C   0  0  0  0  0  0  0  0  0  0  0  0
   -0.9502    0.2868    1.2810 C   0  0  0  0  0  0  0  0  0  0  0  0
    2.8678    1.4122   -1.6954 H   0  0  0  0  0  0  0  0  0  0  0  0
    1.9769    0.0766    0.9792 H   0  0  0  0  0  0  0  0  0  0  0  0
    2.7314   -0.8182   -0.3649 H   0  0  0  0  0  0  0  0  0  0  0  0
    0.6576   -0.2531   -1.8155 H   0  0  0  0  0  0  0  0  0  0  0  0
    0.6335   -2.0343    0.7905 H   0  0  0  0  0  0  0  0  0  0  0  0
   -0.1464   -2.3916   -0.8530 H   0  0  0  0  0  0  0  0  0  0  0  0
   -1.8325    0.5589   -1.5143 H   0  0  0  0  0  0  0  0  0  0  0  0
   -2.3637   -1.0942   -0.8132 H   0  0  0  0  0  0  0  0  0  0  0  0
   -3.1156    0.0277    1.1931 H   0  0  0  0  0  0  0  0  0  0  0  0
   -2.5096    1.6511    0.5479 H   0  0  0  0  0  0  0  0  0  0  0  0
   -1.0148   -0.4327    2.1361 H   0  0  0  0  0  0  0  0  0  0  0  0
   -0.4641    1.2175    1.6080 H   0  0  0  0  0  0  0  0  0  0  0  0
  1  2  2  0
  2  3  1  0
  3  4  1  0
  4  5  1  0
  5  6  1  0
  6  7  1  0
  7  8  1  0
  8  9  1  0
  6  4  1  0
  9  6  1  0
  2 10  1  0
  3 11  1  0
  3 12  1  0
  4 13  1  0
  5 14  1  0
  5 15  1  0
  7 16  1  0
  7 17  1  0
  8 18  1  0
  8 19  1  0
  9 20  1  0
  9 21  1  0
M  END
