
     RDKit          3D

 16 16  0  0  0  0  0  0  0  0999 V2000
    2.4491   -0.2329   -1.6202 O   0  0  0  0  0  0  0  0  0  0  0  0
    2.4545   -0.4386   -0.4268 C   0  0  0  0  0  0  0  0  0  0  0  0
    1.3165   -0.1107    0.4641 C   0  0  0  0  0  0  0  0  0  0  0  0
    0.1632    0.5059   -0.3004 C   0  0  0  0  0  0  0  0  0  0  0  0
   -0.3660   -0.2930   -1.2920 O   0  0  0  0  0  0  0  0  0  0  0  0
   -1.5544   -0.6329   -0.6140 C   0  0  0  0  0  0  0  0  0  0  0  0
   -1.1136    0.3539    0.4714 C   0  0  0  0  0  0  0  0  0  0  0  0
   -1.9242    1.4780    0.5389 O   0  0  0  0  0  0  0  0  0  0  0  0
    3.3270   -0.8855    0.0364 H   0  0  0  0  0  0  0  0  0  0  0  0
    0.9208   -1.0098    0.9908 H   0  0  0  0  0  0  0  0  0  0  0  0
    1.6793    0.6107    1.2238 H   0  0  0  0  0  0  0  0  0  0  0  0
    0.3401    1.5287   -0.6810 H   0  0  0  0  0  0  0  0  0  0  0  0
   -1.5335   -1.6820   -0.2873 H   0  0  0  0  0  0  0  0  0  0  0  0
   -2.4798   -0.3301   -1.1338 H   0  0  0  0  0  0  0  0  0  0  0  0
   -1.0128   -0.1100    1.4669 H   0  0  0  0  0  0  0  0  0  0  0  0
   -2.6664    1.2484    1.1632 H   0  0  0  0  0  0  0  0  0  0  0  0
  1  2  2  0
  2  3  1  0
  3  4  1  0
  4  5  1  0
  5  6  1  0
  6  7  1  0
  7  8  1  0
  7  4  1  0
  2  9  1  0
  3 10  1  0
  3 11  1  0
  4 12  1  0
  6 13  1  0
  6 14  1  0
  7 15  1  0
  8 16  1  0
M  END
