
     RDKit          3D

 15 14  0  0  0  0  0  0  0  0999 V2000
    4.0334   -1.1476    2.4107 O   0  0  0  0  0  0  0  0  0  0  0  0
    3.5785   -0.9502    1.2749 C   0  0  0  0  0  0  0  0  0  0  0  0
    2.2259   -0.5738    0.9840 C   0  0  0  0  0  0  0  0  0  0  0  0
    1.0780   -0.2359    0.7468 C   0  0  0  0  0  0  0  0  0  0  0  0
   -0.3139    0.1829    0.4815 C   0  0  0  0  0  0  0  0  0  0  0  0
   -0.6766   -0.0120   -0.9334 C   0  0  0  0  0  0  0  0  0  0  0  0
    0.0731   -0.4593   -1.7632 O   0  0  0  0  0  0  0  0  0  0  0  0
   -2.0515    0.3708   -1.3422 C   0  0  0  0  0  0  0  0  0  0  0  0
   -2.8062    0.8640   -0.2912 O   0  0  0  0  0  0  0  0  0  0  0  0
    4.2840   -1.0791    0.4394 H   0  0  0  0  0  0  0  0  0  0  0  0
   -0.9688   -0.4265    1.1531 H   0  0  0  0  0  0  0  0  0  0  0  0
   -0.4320    1.2833    0.6921 H   0  0  0  0  0  0  0  0  0  0  0  0
   -2.5625   -0.5499   -1.7331 H   0  0  0  0  0  0  0  0  0  0  0  0
   -2.0406    1.1513   -2.1401 H   0  0  0  0  0  0  0  0  0  0  0  0
   -3.4207    1.5819   -0.6142 H   0  0  0  0  0  0  0  0  0  0  0  0
  1  2  2  0
  2  3  1  0
  3  4  3  0
  4  5  1  0
  5  6  1  0
  6  7  2  0
  6  8  1  0
  8  9  1  0
  2 10  1  0
  5 11  1  0
  5 12  1  0
  8 13  1  0
  8 14  1  0
  9 15  1  0
M  END
