
     RDKit          3D

 16 16  0  0  0  0  0  0  0  0999 V2000
    1.3183    1.3209    1.3007 O   0  0  0  0  0  0  0  0  0  0  0  0
    1.6143    0.7806    0.2574 C   0  0  0  0  0  0  0  0  0  0  0  0
    0.9904   -0.4430   -0.2041 C   0  0  0  0  0  0  0  0  0  0  0  0
    0.2659   -1.2881    0.8082 C   0  0  0  0  0  0  0  0  0  0  0  0
   -0.7022   -1.5553   -0.1557 O   0  0  0  0  0  0  0  0  0  0  0  0
   -0.3322   -0.3926   -0.8579 C   0  0  0  0  0  0  0  0  0  0  0  0
   -1.2152    0.7789   -0.6000 C   0  0  0  0  0  0  0  0  0  0  0  0
   -1.2485    1.1619    0.7263 O   0  0  0  0  0  0  0  0  0  0  0  0
    2.3806    1.2527   -0.3363 H   0  0  0  0  0  0  0  0  0  0  0  0
    1.6932   -1.1037   -0.7874 H   0  0  0  0  0  0  0  0  0  0  0  0
    0.8325   -2.1557    1.1739 H   0  0  0  0  0  0  0  0  0  0  0  0
   -0.1543   -0.7000    1.6219 H   0  0  0  0  0  0  0  0  0  0  0  0
   -0.3283   -0.6420   -1.9425 H   0  0  0  0  0  0  0  0  0  0  0  0
   -2.2308    0.5463   -1.0046 H   0  0  0  0  0  0  0  0  0  0  0  0
   -0.8298    1.6371   -1.1822 H   0  0  0  0  0  0  0  0  0  0  0  0
   -2.0539    0.8019    1.1821 H   0  0  0  0  0  0  0  0  0  0  0  0
  1  2  2  0
  2  3  1  0
  3  4  1  0
  4  5  1  0
  5  6  1  0
  6  7  1  0
  7  8  1  0
  6  3  1  0
  2  9  1  0
  3 10  1  0
  4 11  1  0
  4 12  1  0
  6 13  1  0
  7 14  1  0
  7 15  1  0
  8 16  1  0
M  END
