
     RDKit          3D

 13 12  0  0  0  0  0  0  0  0999 V2000
    4.0124   -0.2334    0.8974 O   0  0  0  0  0  0  0  0  0  0  0  0
    3.0414    0.4686    0.5234 C   0  0  0  0  0  0  0  0  0  0  0  0
    1.6945   -0.0141    0.4376 C   0  0  0  0  0  0  0  0  0  0  0  0
    0.5491   -0.4226    0.3858 C   0  0  0  0  0  0  0  0  0  0  0  0
   -0.8087   -0.9250    0.3429 C   0  0  0  0  0  0  0  0  0  0  0  0
   -1.5911   -0.0546   -0.6207 C   0  0  0  0  0  0  0  0  0  0  0  0
   -1.5966    1.2772   -0.2004 O   0  0  0  0  0  0  0  0  0  0  0  0
    3.2191    1.4960    0.2483 H   0  0  0  0  0  0  0  0  0  0  0  0
   -1.3177   -0.8327    1.3293 H   0  0  0  0  0  0  0  0  0  0  0  0
   -0.8754   -1.9684   -0.0132 H   0  0  0  0  0  0  0  0  0  0  0  0
   -2.6376   -0.4054   -0.6020 H   0  0  0  0  0  0  0  0  0  0  0  0
   -1.2146   -0.0928   -1.6457 H   0  0  0  0  0  0  0  0  0  0  0  0
   -2.4746    1.7071   -0.3779 H   0  0  0  0  0  0  0  0  0  0  0  0
  1  2  2  0
  2  3  1  0
  3  4  3  0
  4  5  1  0
  5  6  1  0
  6  7  1  0
  2  8  1  0
  5  9  1  0
  5 10  1  0
  6 11  1  0
  6 12  1  0
  7 13  1  0
M  END
