
     RDKit          3D

 19 20  0  0  0  0  0  0  0  0999 V2000
    2.3814    1.7236    0.1566 O   0  0  0  0  0  0  0  0  0  0  0  0
    1.9861    0.6590   -0.3364 C   0  0  0  0  0  0  0  0  0  0  0  0
    0.7133    0.1389    0.0263 C   0  0  0  0  0  0  0  0  0  0  0  0
   -0.3516    1.1579    0.4124 C   0  0  0  0  0  0  0  0  0  0  0  0
   -1.6896    0.4621    0.1325 C   0  0  0  0  0  0  0  0  0  0  0  0
   -1.2202   -0.9447   -0.1619 C   0  0  0  0  0  0  0  0  0  0  0  0
   -0.0453   -0.5896   -1.0980 C   0  0  0  0  0  0  0  0  0  0  0  0
   -0.6283   -1.4392    0.9802 O   0  0  0  0  0  0  0  0  0  0  0  0
    0.6683   -0.9410    1.0715 C   0  0  0  0  0  0  0  0  0  0  0  0
    2.6352    0.1532   -1.0385 H   0  0  0  0  0  0  0  0  0  0  0  0
   -0.2111    2.0347   -0.2151 H   0  0  0  0  0  0  0  0  0  0  0  0
   -0.2601    1.3508    1.5039 H   0  0  0  0  0  0  0  0  0  0  0  0
   -2.3665    0.5239    0.9990 H   0  0  0  0  0  0  0  0  0  0  0  0
   -2.1049    0.9080   -0.7938 H   0  0  0  0  0  0  0  0  0  0  0  0
   -1.9494   -1.5784   -0.6344 H   0  0  0  0  0  0  0  0  0  0  0  0
    0.4837   -1.4777   -1.4359 H   0  0  0  0  0  0  0  0  0  0  0  0
   -0.3487    0.1134   -1.8751 H   0  0  0  0  0  0  0  0  0  0  0  0
    1.4161   -1.7509    0.8894 H   0  0  0  0  0  0  0  0  0  0  0  0
    0.8916   -0.5039    2.0644 H   0  0  0  0  0  0  0  0  0  0  0  0
  1  2  2  0
  2  3  1  0
  3  4  1  0
  4  5  1  0
  5  6  1  0
  6  7  1  0
  6  8  1  0
  8  9  1  0
  7  3  1  0
  9  3  1  0
  2 10  1  0
  4 11  1  0
  4 12  1  0
  5 13  1  0
  5 14  1  0
  6 15  1  0
  7 16  1  0
  7 17  1  0
  9 18  1  0
  9 19  1  0
M  END
