
     RDKit          3D

 16 17  0  0  0  0  0  0  0  0999 V2000
    2.9953   -0.6109    0.0691 O   0  0  0  0  0  0  0  0  0  0  0  0
    1.9386   -0.0357   -0.1168 C   0  0  0  0  0  0  0  0  0  0  0  0
    0.6560   -0.7285   -0.0535 C   0  0  0  0  0  0  0  0  0  0  0  0
   -0.3141   -0.2329    1.0127 C   0  0  0  0  0  0  0  0  0  0  0  0
   -0.3719    1.2061    0.7243 C   0  0  0  0  0  0  0  0  0  0  0  0
   -0.4447    1.2366   -0.6327 C   0  0  0  0  0  0  0  0  0  0  0  0
   -0.4321   -0.1937   -0.9844 C   0  0  0  0  0  0  0  0  0  0  0  0
   -1.3960   -0.7668    0.0624 C   0  0  0  0  0  0  0  0  0  0  0  0
    1.9863    1.0228   -0.3337 H   0  0  0  0  0  0  0  0  0  0  0  0
    0.7373   -1.8282   -0.0364 H   0  0  0  0  0  0  0  0  0  0  0  0
   -0.2609   -0.6182    1.9858 H   0  0  0  0  0  0  0  0  0  0  0  0
   -0.3618    2.0654    1.3919 H   0  0  0  0  0  0  0  0  0  0  0  0
   -0.4974    2.1276   -1.2569 H   0  0  0  0  0  0  0  0  0  0  0  0
   -0.4859   -0.5367   -1.9694 H   0  0  0  0  0  0  0  0  0  0  0  0
   -2.3498   -0.2508    0.1298 H   0  0  0  0  0  0  0  0  0  0  0  0
   -1.3989   -1.8564    0.0080 H   0  0  0  0  0  0  0  0  0  0  0  0
  1  2  2  0
  2  3  1  0
  3  4  1  0
  4  5  1  0
  5  6  2  0
  6  7  1  0
  7  8  1  0
  7  3  1  0
  8  4  1  0
  2  9  1  0
  3 10  1  0
  4 11  1  0
  5 12  1  0
  6 13  1  0
  7 14  1  0
  8 15  1  0
  8 16  1  0
M  END
