
     RDKit          3D

 21 21  0  0  0  0  0  0  0  0999 V2000
    2.2663    1.8397   -1.0029 O   0  0  0  0  0  0  0  0  0  0  0  0
    2.4851    0.6885   -0.6073 C   0  0  0  0  0  0  0  0  0  0  0  0
    2.0022    0.1514    0.6764 C   0  0  0  0  0  0  0  0  0  0  0  0
    0.9083   -0.8509    0.3686 C   0  0  0  0  0  0  0  0  0  0  0  0
   -0.2363   -0.2644   -0.3901 C   0  0  0  0  0  0  0  0  0  0  0  0
   -0.9080    0.8693    0.3471 C   0  0  0  0  0  0  0  0  0  0  0  0
   -2.3468    0.7191   -0.1460 C   0  0  0  0  0  0  0  0  0  0  0  0
   -2.4657   -0.5287   -0.7089 O   0  0  0  0  0  0  0  0  0  0  0  0
   -1.3889   -1.2854   -0.3071 C   0  0  0  0  0  0  0  0  0  0  0  0
    3.0733    0.0064   -1.2413 H   0  0  0  0  0  0  0  0  0  0  0  0
    1.6492    0.9244    1.3666 H   0  0  0  0  0  0  0  0  0  0  0  0
    2.8275   -0.3837    1.1648 H   0  0  0  0  0  0  0  0  0  0  0  0
    1.3649   -1.6352   -0.2918 H   0  0  0  0  0  0  0  0  0  0  0  0
    0.5503   -1.3853    1.2469 H   0  0  0  0  0  0  0  0  0  0  0  0
   -0.0264    0.0046   -1.4350 H   0  0  0  0  0  0  0  0  0  0  0  0
   -0.9111    0.6281    1.4072 H   0  0  0  0  0  0  0  0  0  0  0  0
   -0.5065    1.8626    0.0823 H   0  0  0  0  0  0  0  0  0  0  0  0
   -2.5864    1.5508   -0.8566 H   0  0  0  0  0  0  0  0  0  0  0  0
   -3.0568    0.7740    0.6995 H   0  0  0  0  0  0  0  0  0  0  0  0
   -1.4784   -1.5204    0.7818 H   0  0  0  0  0  0  0  0  0  0  0  0
   -1.2157   -2.1647   -0.9362 H   0  0  0  0  0  0  0  0  0  0  0  0
  1  2  2  0
  2  3  1  0
  3  4  1  0
  4  5  1  0
  5  6  1  0
  6  7  1  0
  7  8  1  0
  8  9  1  0
  9  5  1  0
  2 10  1  0
  3 11  1  0
  3 12  1  0
  4 13  1  0
  4 14  1  0
  5 15  1  0
  6 16  1  0
  6 17  1  0
  7 18  1  0
  7 19  1  0
  9 20  1  0
  9 21  1  0
M  END
