
     RDKit          3D

 15 15  0  0  0  0  0  0  0  0999 V2000
    1.8184    2.3897   -0.5910 O   0  0  0  0  0  0  0  0  0  0  0  0
    1.6253    1.1667   -0.2875 C   0  0  0  0  0  0  0  0  0  0  0  0
    0.3078    0.6023   -0.1366 C   0  0  0  0  0  0  0  0  0  0  0  0
    0.0564   -0.6513    0.1749 C   0  0  0  0  0  0  0  0  0  0  0  0
    0.9731   -1.7584    0.4407 C   0  0  0  0  0  0  0  0  0  0  0  0
    2.2009   -1.6227    0.3971 O   0  0  0  0  0  0  0  0  0  0  0  0
   -1.4413   -0.7761    0.2102 C   0  0  0  0  0  0  0  0  0  0  0  0
   -1.8202    0.5067    0.5701 O   0  0  0  0  0  0  0  0  0  0  0  0
   -1.0118    1.2942   -0.2887 C   0  0  0  0  0  0  0  0  0  0  0  0
    2.5112    0.5812   -0.1509 H   0  0  0  0  0  0  0  0  0  0  0  0
    0.5960   -2.7446    0.6872 H   0  0  0  0  0  0  0  0  0  0  0  0
   -1.7374   -1.5461    0.9432 H   0  0  0  0  0  0  0  0  0  0  0  0
   -1.7530   -1.0056   -0.8218 H   0  0  0  0  0  0  0  0  0  0  0  0
   -1.3948    1.2674   -1.3077 H   0  0  0  0  0  0  0  0  0  0  0  0
   -0.9307    2.2966    0.1610 H   0  0  0  0  0  0  0  0  0  0  0  0
  1  2  2  0
  2  3  1  0
  3  4  2  0
  4  5  1  0
  5  6  2  0
  4  7  1  0
  7  8  1  0
  8  9  1  0
  9  3  1  0
  2 10  1  0
  5 11  1  0
  7 12  1  0
  7 13  1  0
  9 14  1  0
  9 15  1  0
M  END
