
     RDKit          3D

 17 18  0  0  0  0  0  0  0  0999 V2000
    2.2852    0.5727   -1.2981 O   0  0  0  0  0  0  0  0  0  0  0  0
    2.4640    0.4248   -0.0977 C   0  0  0  0  0  0  0  0  0  0  0  0
    1.2805   -0.0243    0.7192 C   0  0  0  0  0  0  0  0  0  0  0  0
    0.3762   -0.9816    0.2415 C   0  0  0  0  0  0  0  0  0  0  0  0
   -0.9704   -1.4327    0.4369 C   0  0  0  0  0  0  0  0  0  0  0  0
   -1.7894   -0.5826   -0.1846 C   0  0  0  0  0  0  0  0  0  0  0  0
   -0.8730    0.4761   -0.8031 C   0  0  0  0  0  0  0  0  0  0  0  0
   -1.5279    1.6960   -0.9148 O   0  0  0  0  0  0  0  0  0  0  0  0
    0.0472    0.5399    0.3876 C   0  0  0  0  0  0  0  0  0  0  0  0
    3.4377    0.6225    0.2841 H   0  0  0  0  0  0  0  0  0  0  0  0
    1.5889   -0.1172    1.7951 H   0  0  0  0  0  0  0  0  0  0  0  0
    0.6700   -1.3346   -0.8068 H   0  0  0  0  0  0  0  0  0  0  0  0
   -1.4040   -2.2883    0.9676 H   0  0  0  0  0  0  0  0  0  0  0  0
   -2.8733   -0.6060   -0.2563 H   0  0  0  0  0  0  0  0  0  0  0  0
   -0.4084    0.1341   -1.7202 H   0  0  0  0  0  0  0  0  0  0  0  0
   -1.7074    2.0733   -0.0301 H   0  0  0  0  0  0  0  0  0  0  0  0
   -0.5959    0.8278    1.2795 H   0  0  0  0  0  0  0  0  0  0  0  0
  1  2  2  0
  2  3  1  0
  3  4  1  0
  4  5  1  0
  5  6  2  0
  6  7  1  0
  7  8  1  0
  7  9  1  0
  9  3  1  0
  9  4  1  0
  2 10  1  0
  3 11  1  0
  4 12  1  0
  5 13  1  0
  6 14  1  0
  7 15  1  0
  8 16  1  0
  9 17  1  0
M  END
