
     RDKit          3D

 15 15  0  0  0  0  0  0  0  0999 V2000
    3.2261    0.5231   -0.0561 O   0  0  0  0  0  0  0  0  0  0  0  0
    2.4052   -0.3951   -0.2518 C   0  0  0  0  0  0  0  0  0  0  0  0
    0.9885   -0.1018   -0.1844 C   0  0  0  0  0  0  0  0  0  0  0  0
    0.0106   -0.9589   -0.3666 C   0  0  0  0  0  0  0  0  0  0  0  0
   -1.3193   -0.3644   -0.2345 C   0  0  0  0  0  0  0  0  0  0  0  0
   -2.1329   -1.0120    0.6950 O   0  0  0  0  0  0  0  0  0  0  0  0
   -1.0637    1.0683    0.1675 C   0  0  0  0  0  0  0  0  0  0  0  0
    0.4062    1.1825    0.0944 C   0  0  0  0  0  0  0  0  0  0  0  0
    1.0339    2.2469    0.2542 O   0  0  0  0  0  0  0  0  0  0  0  0
    2.7435   -1.4207   -0.4741 H   0  0  0  0  0  0  0  0  0  0  0  0
    0.1714   -2.0156   -0.5950 H   0  0  0  0  0  0  0  0  0  0  0  0
   -1.8652   -0.4182   -1.2186 H   0  0  0  0  0  0  0  0  0  0  0  0
   -1.6545   -1.3040    1.4931 H   0  0  0  0  0  0  0  0  0  0  0  0
   -1.5165    1.7735   -0.5343 H   0  0  0  0  0  0  0  0  0  0  0  0
   -1.4335    1.1965    1.2111 H   0  0  0  0  0  0  0  0  0  0  0  0
  1  2  2  0
  2  3  1  0
  3  4  2  0
  4  5  1  0
  5  6  1  0
  5  7  1  0
  7  8  1  0
  8  9  2  0
  8  3  1  0
  2 10  1  0
  4 11  1  0
  5 12  1  0
  6 13  1  0
  7 14  1  0
  7 15  1  0
M  END
