
     RDKit          3D

 17 18  0  0  0  0  0  0  0  0999 V2000
    3.6439   -0.0783    0.3545 O   0  0  0  0  0  0  0  0  0  0  0  0
    2.6124    0.4887    0.0400 C   0  0  0  0  0  0  0  0  0  0  0  0
    1.3139   -0.2028    0.0520 C   0  0  0  0  0  0  0  0  0  0  0  0
    0.3774    0.1947   -1.0979 C   0  0  0  0  0  0  0  0  0  0  0  0
   -0.5259   -0.7959   -1.4240 O   0  0  0  0  0  0  0  0  0  0  0  0
   -1.6434   -0.6458   -0.6368 C   0  0  0  0  0  0  0  0  0  0  0  0
   -1.2109    0.0339    0.6291 C   0  0  0  0  0  0  0  0  0  0  0  0
   -1.2045   -0.7847    1.7343 O   0  0  0  0  0  0  0  0  0  0  0  0
    0.1160    0.6319    0.2993 C   0  0  0  0  0  0  0  0  0  0  0  0
    2.6943    1.5330   -0.2514 H   0  0  0  0  0  0  0  0  0  0  0  0
    1.3438   -1.2490    0.3602 H   0  0  0  0  0  0  0  0  0  0  0  0
    0.7695    0.8778   -1.8586 H   0  0  0  0  0  0  0  0  0  0  0  0
   -2.3876   -0.0447   -1.2033 H   0  0  0  0  0  0  0  0  0  0  0  0
   -2.1138   -1.6417   -0.4487 H   0  0  0  0  0  0  0  0  0  0  0  0
   -1.9259    0.8640    0.8193 H   0  0  0  0  0  0  0  0  0  0  0  0
   -2.1426   -0.8747    2.0495 H   0  0  0  0  0  0  0  0  0  0  0  0
    0.2835    1.6936    0.5825 H   0  0  0  0  0  0  0  0  0  0  0  0
  1  2  2  0
  2  3  1  0
  3  4  1  0
  4  5  1  0
  5  6  1  0
  6  7  1  0
  7  8  1  0
  7  9  1  0
  9  3  1  0
  9  4  1  0
  2 10  1  0
  3 11  1  0
  4 12  1  0
  6 13  1  0
  6 14  1  0
  7 15  1  0
  8 16  1  0
  9 17  1  0
M  END
