
     RDKit          3D

 19 21  0  0  0  0  0  0  0  0999 V2000
    2.8941   -0.8484   -0.4517 O   0  0  0  0  0  0  0  0  0  0  0  0
    2.1446   -0.3313    0.3605 C   0  0  0  0  0  0  0  0  0  0  0  0
    0.7593   -0.1163    0.1261 C   0  0  0  0  0  0  0  0  0  0  0  0
    0.3557    1.2356   -0.4191 C   0  0  0  0  0  0  0  0  0  0  0  0
   -1.1678    1.0210   -0.4767 C   0  0  0  0  0  0  0  0  0  0  0  0
   -1.4861    0.0976    0.6185 C   0  0  0  0  0  0  0  0  0  0  0  0
   -0.1649   -0.2386    1.3215 C   0  0  0  0  0  0  0  0  0  0  0  0
   -1.3240   -0.3933   -0.7987 C   0  0  0  0  0  0  0  0  0  0  0  0
    0.0747   -1.0309   -0.8605 C   0  0  0  0  0  0  0  0  0  0  0  0
    2.5907   -0.0306    1.3027 H   0  0  0  0  0  0  0  0  0  0  0  0
    0.7856    1.3699   -1.4091 H   0  0  0  0  0  0  0  0  0  0  0  0
    0.6127    2.0055    0.3201 H   0  0  0  0  0  0  0  0  0  0  0  0
   -1.7964    1.8293   -0.8232 H   0  0  0  0  0  0  0  0  0  0  0  0
   -2.4186    0.0359    1.1501 H   0  0  0  0  0  0  0  0  0  0  0  0
   -0.2569   -1.2749    1.6885 H   0  0  0  0  0  0  0  0  0  0  0  0
    0.0901    0.4794    2.0966 H   0  0  0  0  0  0  0  0  0  0  0  0
   -2.1358   -0.8439   -1.3483 H   0  0  0  0  0  0  0  0  0  0  0  0
    0.0062   -2.0664   -0.5125 H   0  0  0  0  0  0  0  0  0  0  0  0
    0.4367   -0.8995   -1.8848 H   0  0  0  0  0  0  0  0  0  0  0  0
  1  2  2  0
  2  3  1  0
  3  4  1  0
  4  5  1  0
  5  6  1  0
  6  7  1  0
  6  8  1  0
  8  9  1  0
  7  3  1  0
  9  3  1  0
  8  5  1  0
  2 10  1  0
  4 11  1  0
  4 12  1  0
  5 13  1  0
  6 14  1  0
  7 15  1  0
  7 16  1  0
  8 17  1  0
  9 18  1  0
  9 19  1  0
M  END
