
     RDKit          3D

 17 17  0  0  0  0  0  0  0  0999 V2000
   -2.4741    1.6941   -0.4002 O   0  0  0  0  0  0  0  0  0  0  0  0
   -2.6236    0.4532   -0.2636 C   0  0  0  0  0  0  0  0  0  0  0  0
   -1.5268   -0.4960   -0.2175 C   0  0  0  0  0  0  0  0  0  0  0  0
   -1.7765   -1.7093   -0.0790 O   0  0  0  0  0  0  0  0  0  0  0  0
   -0.1583    0.0610   -0.3413 C   0  0  0  0  0  0  0  0  0  0  0  0
    0.1060    1.0177    0.7576 C   0  0  0  0  0  0  0  0  0  0  0  0
    1.2675    0.7682    1.3216 C   0  0  0  0  0  0  0  0  0  0  0  0
    1.9381   -0.3922    0.6738 C   0  0  0  0  0  0  0  0  0  0  0  0
    0.9063   -0.9940   -0.2422 C   0  0  0  0  0  0  0  0  0  0  0  0
   -3.6332    0.0868   -0.1769 H   0  0  0  0  0  0  0  0  0  0  0  0
   -0.0989    0.6421   -1.2909 H   0  0  0  0  0  0  0  0  0  0  0  0
   -0.5523    1.8127    1.0640 H   0  0  0  0  0  0  0  0  0  0  0  0
    1.7014    1.3154    2.1456 H   0  0  0  0  0  0  0  0  0  0  0  0
    2.2403   -1.1335    1.4398 H   0  0  0  0  0  0  0  0  0  0  0  0
    2.8020    0.0059    0.1121 H   0  0  0  0  0  0  0  0  0  0  0  0
    1.3562   -1.1669   -1.2395 H   0  0  0  0  0  0  0  0  0  0  0  0
    0.5258   -1.9651    0.1134 H   0  0  0  0  0  0  0  0  0  0  0  0
  1  2  2  0
  2  3  1  0
  3  4  2  0
  3  5  1  0
  5  6  1  0
  6  7  2  0
  7  8  1  0
  8  9  1  0
  9  5  1  0
  2 10  1  0
  5 11  1  0
  6 12  1  0
  7 13  1  0
  8 14  1  0
  8 15  1  0
  9 16  1  0
  9 17  1  0
M  END
