
     RDKit          3D

 19 20  0  0  0  0  0  0  0  0999 V2000
    3.4543    0.4787    1.0153 O   0  0  0  0  0  0  0  0  0  0  0  0
    2.3112    0.5089    0.5781 C   0  0  0  0  0  0  0  0  0  0  0  0
    1.3742   -0.6400    0.7222 C   0  0  0  0  0  0  0  0  0  0  0  0
    0.0796   -0.2504    0.0748 C   0  0  0  0  0  0  0  0  0  0  0  0
   -0.6961    0.9248    0.5471 C   0  0  0  0  0  0  0  0  0  0  0  0
   -2.0270    0.7238   -0.1903 C   0  0  0  0  0  0  0  0  0  0  0  0
   -2.1795   -0.6505   -0.2241 O   0  0  0  0  0  0  0  0  0  0  0  0
   -0.9212   -1.2156   -0.3801 C   0  0  0  0  0  0  0  0  0  0  0  0
   -0.0332   -0.6592   -1.4030 C   0  0  0  0  0  0  0  0  0  0  0  0
    2.0321    1.4418    0.0751 H   0  0  0  0  0  0  0  0  0  0  0  0
    1.7914   -1.5738    0.3522 H   0  0  0  0  0  0  0  0  0  0  0  0
    1.1904   -0.7481    1.8246 H   0  0  0  0  0  0  0  0  0  0  0  0
   -0.2098    1.8640    0.2630 H   0  0  0  0  0  0  0  0  0  0  0  0
   -0.9316    0.8384    1.6255 H   0  0  0  0  0  0  0  0  0  0  0  0
   -2.7857    1.2464    0.3928 H   0  0  0  0  0  0  0  0  0  0  0  0
   -1.9927    1.1803   -1.1994 H   0  0  0  0  0  0  0  0  0  0  0  0
   -0.8647   -2.2910   -0.1520 H   0  0  0  0  0  0  0  0  0  0  0  0
    0.7564   -1.3106   -1.8092 H   0  0  0  0  0  0  0  0  0  0  0  0
   -0.3481    0.1321   -2.1128 H   0  0  0  0  0  0  0  0  0  0  0  0
  1  2  2  0
  2  3  1  0
  3  4  1  0
  4  5  1  0
  5  6  1  0
  6  7  1  0
  7  8  1  0
  8  9  1  0
  8  4  1  0
  9  4  1  0
  2 10  1  0
  3 11  1  0
  3 12  1  0
  5 13  1  0
  5 14  1  0
  6 15  1  0
  6 16  1  0
  8 17  1  0
  9 18  1  0
  9 19  1  0
M  END
