
     RDKit          3D

 17 18  0  0  0  0  0  0  0  0999 V2000
    3.5156    0.5069   -0.2007 O   0  0  0  0  0  0  0  0  0  0  0  0
    2.4443    0.4180   -0.8372 C   0  0  0  0  0  0  0  0  0  0  0  0
    1.1814    0.9307   -0.1845 C   0  0  0  0  0  0  0  0  0  0  0  0
    0.4301   -0.3007    0.3128 C   0  0  0  0  0  0  0  0  0  0  0  0
    0.0937   -1.1903   -0.7435 O   0  0  0  0  0  0  0  0  0  0  0  0
   -1.2143   -1.1198   -0.2909 C   0  0  0  0  0  0  0  0  0  0  0  0
   -1.9567    0.1558   -0.5110 C   0  0  0  0  0  0  0  0  0  0  0  0
   -0.9892    0.0336    0.5955 C   0  0  0  0  0  0  0  0  0  0  0  0
   -1.4836    0.0779    1.8849 O   0  0  0  0  0  0  0  0  0  0  0  0
    2.4878   -0.0208   -1.7997 H   0  0  0  0  0  0  0  0  0  0  0  0
    1.4954    1.5064    0.6960 H   0  0  0  0  0  0  0  0  0  0  0  0
    0.5938    1.5375   -0.8830 H   0  0  0  0  0  0  0  0  0  0  0  0
    0.9791   -0.8926    1.0407 H   0  0  0  0  0  0  0  0  0  0  0  0
   -1.7699   -2.0259    0.0046 H   0  0  0  0  0  0  0  0  0  0  0  0
   -1.7055    0.8049   -1.3659 H   0  0  0  0  0  0  0  0  0  0  0  0
   -3.0359    0.1328   -0.2172 H   0  0  0  0  0  0  0  0  0  0  0  0
   -1.0659   -0.5544    2.4991 H   0  0  0  0  0  0  0  0  0  0  0  0
  1  2  2  0
  2  3  1  0
  3  4  1  0
  4  5  1  0
  5  6  1  0
  6  7  1  0
  7  8  1  0
  8  9  1  0
  8  4  1  0
  8  6  1  0
  2 10  1  0
  3 11  1  0
  3 12  1  0
  4 13  1  0
  6 14  1  0
  7 15  1  0
  7 16  1  0
  9 17  1  0
M  END
