
     RDKit          3D

 15 16  0  0  0  0  0  0  0  0999 V2000
    2.9610   -0.8796   -1.0060 O   0  0  0  0  0  0  0  0  0  0  0  0
    1.9867   -0.7131   -0.3133 C   0  0  0  0  0  0  0  0  0  0  0  0
    1.0893    0.4562   -0.5446 C   0  0  0  0  0  0  0  0  0  0  0  0
    0.5112    1.0754    0.7497 C   0  0  0  0  0  0  0  0  0  0  0  0
   -0.2984    0.2964   -0.1699 C   0  0  0  0  0  0  0  0  0  0  0  0
   -1.3712    0.8041   -0.8740 O   0  0  0  0  0  0  0  0  0  0  0  0
   -2.1704   -0.1536   -0.2027 C   0  0  0  0  0  0  0  0  0  0  0  0
   -0.9643   -0.9571    0.1372 C   0  0  0  0  0  0  0  0  0  0  0  0
   -0.6596   -2.0767    0.4903 O   0  0  0  0  0  0  0  0  0  0  0  0
    1.7329   -1.3991    0.4912 H   0  0  0  0  0  0  0  0  0  0  0  0
    1.3501    1.1514   -1.3629 H   0  0  0  0  0  0  0  0  0  0  0  0
    0.5114    2.1854    0.7542 H   0  0  0  0  0  0  0  0  0  0  0  0
    0.8288    0.6214    1.7044 H   0  0  0  0  0  0  0  0  0  0  0  0
   -2.9007   -0.6617   -0.8595 H   0  0  0  0  0  0  0  0  0  0  0  0
   -2.6067    0.2505    0.7546 H   0  0  0  0  0  0  0  0  0  0  0  0
  1  2  2  0
  2  3  1  0
  3  4  1  0
  4  5  1  0
  5  6  1  0
  6  7  1  0
  7  8  1  0
  8  9  2  0
  5  3  1  0
  8  5  1  0
  2 10  1  0
  3 11  1  0
  4 12  1  0
  4 13  1  0
  7 14  1  0
  7 15  1  0
M  END
