
     RDKit          3D

 17 17  0  0  0  0  0  0  0  0999 V2000
    2.5099    1.5205   -0.3934 O   0  0  0  0  0  0  0  0  0  0  0  0
    2.2557    0.3808   -0.0199 C   0  0  0  0  0  0  0  0  0  0  0  0
    0.9344    0.0419    0.5458 C   0  0  0  0  0  0  0  0  0  0  0  0
    0.4194   -1.2859    0.0516 C   0  0  0  0  0  0  0  0  0  0  0  0
   -0.4180   -1.0221   -1.0248 O   0  0  0  0  0  0  0  0  0  0  0  0
   -1.0871    0.1362   -0.7158 C   0  0  0  0  0  0  0  0  0  0  0  0
   -2.3182   -0.0997    0.0787 C   0  0  0  0  0  0  0  0  0  0  0  0
   -2.6396   -1.2320    0.3885 O   0  0  0  0  0  0  0  0  0  0  0  0
   -0.1087    1.0136    0.0279 C   0  0  0  0  0  0  0  0  0  0  0  0
    3.0628   -0.3438   -0.1360 H   0  0  0  0  0  0  0  0  0  0  0  0
    0.9386   -0.0061    1.6633 H   0  0  0  0  0  0  0  0  0  0  0  0
   -0.2004   -1.7905    0.8310 H   0  0  0  0  0  0  0  0  0  0  0  0
    1.2257   -1.9922   -0.2036 H   0  0  0  0  0  0  0  0  0  0  0  0
   -1.3783    0.6514   -1.6714 H   0  0  0  0  0  0  0  0  0  0  0  0
   -2.9563    0.7110    0.4015 H   0  0  0  0  0  0  0  0  0  0  0  0
   -0.5818    1.5795    0.8589 H   0  0  0  0  0  0  0  0  0  0  0  0
    0.3419    1.7375   -0.6822 H   0  0  0  0  0  0  0  0  0  0  0  0
  1  2  2  0
  2  3  1  0
  3  4  1  0
  4  5  1  0
  5  6  1  0
  6  7  1  0
  7  8  2  0
  6  9  1  0
  9  3  1  0
  2 10  1  0
  3 11  1  0
  4 12  1  0
  4 13  1  0
  6 14  1  0
  7 15  1  0
  9 16  1  0
  9 17  1  0
M  END
