
     RDKit          3D

 17 18  0  0  0  0  0  0  0  0999 V2000
    2.7793    1.0997    0.4410 O   0  0  0  0  0  0  0  0  0  0  0  0
    2.2137    0.4521   -0.4236 C   0  0  0  0  0  0  0  0  0  0  0  0
    0.7637    0.4950   -0.6733 C   0  0  0  0  0  0  0  0  0  0  0  0
   -0.0005   -0.3259    0.3260 C   0  0  0  0  0  0  0  0  0  0  0  0
   -1.5019   -0.3680    0.1840 C   0  0  0  0  0  0  0  0  0  0  0  0
   -2.1173    0.5993   -0.7346 C   0  0  0  0  0  0  0  0  0  0  0  0
   -2.0598   -0.7512   -1.0217 O   0  0  0  0  0  0  0  0  0  0  0  0
    0.6416   -1.2073    1.2950 C   0  0  0  0  0  0  0  0  0  0  0  0
    0.3971    0.1069    1.6853 O   0  0  0  0  0  0  0  0  0  0  0  0
    2.8696   -0.1902   -1.0300 H   0  0  0  0  0  0  0  0  0  0  0  0
    0.4425    1.5662   -0.5156 H   0  0  0  0  0  0  0  0  0  0  0  0
    0.4941    0.2572   -1.7091 H   0  0  0  0  0  0  0  0  0  0  0  0
   -2.0497   -0.6103    1.1290 H   0  0  0  0  0  0  0  0  0  0  0  0
   -1.4720    1.2629   -1.3622 H   0  0  0  0  0  0  0  0  0  0  0  0
   -3.0834    1.0604   -0.4504 H   0  0  0  0  0  0  0  0  0  0  0  0
   -0.0185   -1.9472    1.7968 H   0  0  0  0  0  0  0  0  0  0  0  0
    1.7013   -1.4996    1.0634 H   0  0  0  0  0  0  0  0  0  0  0  0
  1  2  2  0
  2  3  1  0
  3  4  1  0
  4  5  1  0
  5  6  1  0
  6  7  1  0
  4  8  1  0
  8  9  1  0
  9  4  1  0
  7  5  1  0
  2 10  1  0
  3 11  1  0
  3 12  1  0
  5 13  1  0
  6 14  1  0
  6 15  1  0
  8 16  1  0
  8 17  1  0
M  END
