
     RDKit          3D

 17 17  0  0  0  0  0  0  0  0999 V2000
    2.8140    0.6511    0.5488 O   0  0  0  0  0  0  0  0  0  0  0  0
    2.4681   -0.5344    0.3689 C   0  0  0  0  0  0  0  0  0  0  0  0
    1.2100   -0.7838   -0.3096 C   0  0  0  0  0  0  0  0  0  0  0  0
    0.8544   -1.9954   -0.4946 O   0  0  0  0  0  0  0  0  0  0  0  0
    0.3273    0.3014   -0.7931 C   0  0  0  0  0  0  0  0  0  0  0  0
   -0.1742    1.1164    0.3940 C   0  0  0  0  0  0  0  0  0  0  0  0
   -1.3676    0.2860    0.8083 C   0  0  0  0  0  0  0  0  0  0  0  0
   -1.7312   -0.4857   -0.4184 C   0  0  0  0  0  0  0  0  0  0  0  0
   -0.7768   -0.2392   -1.3867 O   0  0  0  0  0  0  0  0  0  0  0  0
    3.0795   -1.3437    0.7043 H   0  0  0  0  0  0  0  0  0  0  0  0
    0.8554    1.0189   -1.4650 H   0  0  0  0  0  0  0  0  0  0  0  0
   -0.4431    2.1429    0.1186 H   0  0  0  0  0  0  0  0  0  0  0  0
    0.5966    1.0985    1.1766 H   0  0  0  0  0  0  0  0  0  0  0  0
   -2.1778    0.8613    1.2542 H   0  0  0  0  0  0  0  0  0  0  0  0
   -1.0124   -0.4283    1.5995 H   0  0  0  0  0  0  0  0  0  0  0  0
   -2.6949   -0.0760   -0.8010 H   0  0  0  0  0  0  0  0  0  0  0  0
   -1.8273   -1.5900   -0.2116 H   0  0  0  0  0  0  0  0  0  0  0  0
  1  2  2  0
  2  3  1  0
  3  4  2  0
  3  5  1  0
  5  6  1  0
  6  7  1  0
  7  8  1  0
  8  9  1  0
  9  5  1  0
  2 10  1  0
  5 11  1  0
  6 12  1  0
  6 13  1  0
  7 14  1  0
  7 15  1  0
  8 16  1  0
  8 17  1  0
M  END
