
     RDKit          3D

 13 12  0  0  0  0  0  0  0  0999 V2000
    4.2535   -2.4071   -0.0232 O   0  0  0  0  0  0  0  0  0  0  0  0
    3.5403   -1.6442    0.2402 C   0  0  0  0  0  0  0  0  0  0  0  0
    1.8170   -1.1527   -0.1733 C   0  0  0  0  0  0  0  0  0  0  0  0
    0.8953   -0.8835   -0.4112 C   0  0  0  0  0  0  0  0  0  0  0  0
   -0.1775   -0.5500   -0.6864 C   0  0  0  0  0  0  0  0  0  0  0  0
   -1.1295    0.3813   -0.0016 C   0  0  0  0  0  0  0  0  0  0  0  0
   -2.0697    1.2797    0.6443 C   0  0  0  0  0  0  0  0  0  0  0  0
   -2.7849    1.9625    1.1176 C   0  0  0  0  0  0  0  0  0  0  0  0
   -3.1596    2.8813   -0.3436 O   0  0  0  0  0  0  0  0  0  0  0  0
    3.7115   -0.7303    1.1146 H   0  0  0  0  0  0  0  0  0  0  0  0
   -0.4202   -0.2543   -1.8441 H   0  0  0  0  0  0  0  0  0  0  0  0
   -0.9598   -1.5500   -0.7668 H   0  0  0  0  0  0  0  0  0  0  0  0
   -3.5163    2.6673    1.5821 H   0  0  0  0  0  0  0  0  0  0  0  0
  1  2  2  0
  2  3  1  0
  3  4  3  0
  4  5  1  0
  5  6  1  0
  6  7  3  0
  7  8  1  0
  8  9  2  0
  2 10  1  0
  5 11  1  0
  5 12  1  0
  8 13  1  0
M  END
