
     RDKit          3D

 17 18  0  0  0  0  0  0  0  0999 V2000
   -2.3940   -1.5001   -0.6035 O   0  0  0  0  0  0  0  0  0  0  0  0
   -1.4170   -0.8159   -0.9199 C   0  0  0  0  0  0  0  0  0  0  0  0
   -0.9213    0.1737    0.0274 C   0  0  0  0  0  0  0  0  0  0  0  0
   -1.6350    0.2339    1.2249 O   0  0  0  0  0  0  0  0  0  0  0  0
   -0.6576    1.5599   -0.5647 C   0  0  0  0  0  0  0  0  0  0  0  0
    0.4364    1.6374    0.3188 O   0  0  0  0  0  0  0  0  0  0  0  0
    0.5314    0.2836    0.2614 C   0  0  0  0  0  0  0  0  0  0  0  0
    1.3293   -0.5692    1.1130 C   0  0  0  0  0  0  0  0  0  0  0  0
    1.5676   -0.4666   -0.4223 C   0  0  0  0  0  0  0  0  0  0  0  0
   -0.9846   -0.9840   -1.8722 H   0  0  0  0  0  0  0  0  0  0  0  0
   -1.0821   -0.2679    1.8919 H   0  0  0  0  0  0  0  0  0  0  0  0
   -1.4526    2.2871   -0.3906 H   0  0  0  0  0  0  0  0  0  0  0  0
   -0.3195    1.4596   -1.6157 H   0  0  0  0  0  0  0  0  0  0  0  0
    2.1675   -0.2121    1.7409 H   0  0  0  0  0  0  0  0  0  0  0  0
    0.9052   -1.5262    1.4714 H   0  0  0  0  0  0  0  0  0  0  0  0
    1.4293   -1.4051   -0.9580 H   0  0  0  0  0  0  0  0  0  0  0  0
    2.4969    0.1119   -0.7028 H   0  0  0  0  0  0  0  0  0  0  0  0
  1  2  2  0
  2  3  1  0
  3  4  1  0
  3  5  1  0
  5  6  1  0
  6  7  1  0
  7  8  1  0
  8  9  1  0
  7  3  1  0
  9  7  1  0
  2 10  1  0
  4 11  1  0
  5 12  1  0
  5 13  1  0
  8 14  1  0
  8 15  1  0
  9 16  1  0
  9 17  1  0
M  END
