
     RDKit          3D

 16 16  0  0  0  0  0  0  0  0999 V2000
   -0.7186    1.2433   -1.9961 O   0  0  0  0  0  0  0  0  0  0  0  0
   -0.8950    0.2480   -1.3426 C   0  0  0  0  0  0  0  0  0  0  0  0
   -0.1429    0.0006   -0.1015 C   0  0  0  0  0  0  0  0  0  0  0  0
    1.1565   -0.6827   -0.3263 C   0  0  0  0  0  0  0  0  0  0  0  0
    2.0419   -0.0024   -1.1315 O   0  0  0  0  0  0  0  0  0  0  0  0
   -0.2416    1.1104    0.8693 C   0  0  0  0  0  0  0  0  0  0  0  0
   -1.3290    0.4756    1.4822 O   0  0  0  0  0  0  0  0  0  0  0  0
   -0.9699   -0.7422    0.9300 C   0  0  0  0  0  0  0  0  0  0  0  0
   -1.6236   -0.4743   -1.6826 H   0  0  0  0  0  0  0  0  0  0  0  0
    1.6268   -0.9999    0.6314 H   0  0  0  0  0  0  0  0  0  0  0  0
    0.9329   -1.6525   -0.8639 H   0  0  0  0  0  0  0  0  0  0  0  0
    2.4427    0.7921   -0.6726 H   0  0  0  0  0  0  0  0  0  0  0  0
    0.5549    1.2489    1.6041 H   0  0  0  0  0  0  0  0  0  0  0  0
   -0.6391    2.0837    0.4574 H   0  0  0  0  0  0  0  0  0  0  0  0
   -1.8508   -1.2848    0.5147 H   0  0  0  0  0  0  0  0  0  0  0  0
   -0.3451   -1.3639    1.6282 H   0  0  0  0  0  0  0  0  0  0  0  0
  1  2  2  0
  2  3  1  0
  3  4  1  0
  4  5  1  0
  3  6  1  0
  6  7  1  0
  7  8  1  0
  8  3  1  0
  2  9  1  0
  4 10  1  0
  4 11  1  0
  5 12  1  0
  6 13  1  0
  6 14  1  0
  8 15  1  0
  8 16  1  0
M  END
