
     RDKit          3D

 17 17  0  0  0  0  0  0  0  0999 V2000
   -1.9225   -1.8982   -0.4186 O   0  0  0  0  0  0  0  0  0  0  0  0
   -1.9339   -0.6981   -0.4003 C   0  0  0  0  0  0  0  0  0  0  0  0
   -1.0643    0.1455    0.4741 C   0  0  0  0  0  0  0  0  0  0  0  0
   -0.2150    1.0486   -0.3301 C   0  0  0  0  0  0  0  0  0  0  0  0
    1.1010    0.5491   -0.7595 C   0  0  0  0  0  0  0  0  0  0  0  0
    1.7300   -0.5147    0.0401 C   0  0  0  0  0  0  0  0  0  0  0  0
    0.9080   -1.1936    0.9364 O   0  0  0  0  0  0  0  0  0  0  0  0
   -0.2943   -0.6910    1.4354 C   0  0  0  0  0  0  0  0  0  0  0  0
   -0.6901   -0.9304    2.6076 O   0  0  0  0  0  0  0  0  0  0  0  0
   -2.6148   -0.1668   -1.0555 H   0  0  0  0  0  0  0  0  0  0  0  0
   -1.7847    0.7630    1.0890 H   0  0  0  0  0  0  0  0  0  0  0  0
   -0.7996    1.3416   -1.2518 H   0  0  0  0  0  0  0  0  0  0  0  0
   -0.1073    2.0203    0.2357 H   0  0  0  0  0  0  0  0  0  0  0  0
    1.0667    0.2156   -1.8397 H   0  0  0  0  0  0  0  0  0  0  0  0
    1.8144    1.4275   -0.7931 H   0  0  0  0  0  0  0  0  0  0  0  0
    2.5973   -0.1209    0.6489 H   0  0  0  0  0  0  0  0  0  0  0  0
    2.2090   -1.2975   -0.6186 H   0  0  0  0  0  0  0  0  0  0  0  0
  1  2  2  0
  2  3  1  0
  3  4  1  0
  4  5  1  0
  5  6  1  0
  6  7  1  0
  7  8  1  0
  8  9  2  0
  8  3  1  0
  2 10  1  0
  3 11  1  0
  4 12  1  0
  4 13  1  0
  5 14  1  0
  5 15  1  0
  6 16  1  0
  6 17  1  0
M  END
