
     RDKit          3D

 17 16  0  0  0  0  0  0  0  0999 V2000
   -0.9653   -2.2683    0.1389 O   0  0  0  0  0  0  0  0  0  0  0  0
   -1.8158   -1.3850    0.3290 C   0  0  0  0  0  0  0  0  0  0  0  0
   -1.5881   -0.0463   -0.1076 C   0  0  0  0  0  0  0  0  0  0  0  0
   -2.5710    0.7715    0.1157 O   0  0  0  0  0  0  0  0  0  0  0  0
   -0.4284    0.5405   -0.7646 C   0  0  0  0  0  0  0  0  0  0  0  0
   -0.8156    1.8354   -1.2264 O   0  0  0  0  0  0  0  0  0  0  0  0
    0.7809    0.7836    0.0611 C   0  0  0  0  0  0  0  0  0  0  0  0
    1.4321   -0.3801    0.7036 C   0  0  0  0  0  0  0  0  0  0  0  0
    1.8856   -1.3273   -0.2451 O   0  0  0  0  0  0  0  0  0  0  0  0
   -2.7166   -1.6741    0.8303 H   0  0  0  0  0  0  0  0  0  0  0  0
   -0.1539   -0.0773   -1.6301 H   0  0  0  0  0  0  0  0  0  0  0  0
   -1.1665    2.2924   -0.4140 H   0  0  0  0  0  0  0  0  0  0  0  0
    0.6340    1.5664    0.8400 H   0  0  0  0  0  0  0  0  0  0  0  0
    1.5469    1.2261   -0.6478 H   0  0  0  0  0  0  0  0  0  0  0  0
    2.3965   -0.0403    1.2046 H   0  0  0  0  0  0  0  0  0  0  0  0
    0.8721   -0.8495    1.5297 H   0  0  0  0  0  0  0  0  0  0  0  0
    2.6731   -0.9677   -0.7172 H   0  0  0  0  0  0  0  0  0  0  0  0
  1  2  2  0
  2  3  1  0
  3  4  2  0
  3  5  1  0
  5  6  1  0
  5  7  1  0
  7  8  1  0
  8  9  1  0
  2 10  1  0
  5 11  1  0
  6 12  1  0
  7 13  1  0
  7 14  1  0
  8 15  1  0
  8 16  1  0
  9 17  1  0
M  END
