
     RDKit          3D

 15 17  0  0  0  0  0  0  0  0999 V2000
   -2.7860   -0.7277    0.9247 O   0  0  0  0  0  0  0  0  0  0  0  0
   -1.8146   -0.8077    0.1540 C   0  0  0  0  0  0  0  0  0  0  0  0
   -0.7579    0.0453    0.1969 C   0  0  0  0  0  0  0  0  0  0  0  0
   -0.4107    1.0729   -0.8518 C   0  0  0  0  0  0  0  0  0  0  0  0
    0.4843    1.2898    0.3373 C   0  0  0  0  0  0  0  0  0  0  0  0
   -0.6455    1.1138    1.1182 O   0  0  0  0  0  0  0  0  0  0  0  0
    0.6625   -0.1810    0.3719 C   0  0  0  0  0  0  0  0  0  0  0  0
    1.6129   -1.0095   -0.0886 C   0  0  0  0  0  0  0  0  0  0  0  0
    1.2719   -0.8623    1.3640 O   0  0  0  0  0  0  0  0  0  0  0  0
   -1.9119   -1.6350   -0.5519 H   0  0  0  0  0  0  0  0  0  0  0  0
    0.1358    0.6238   -1.6863 H   0  0  0  0  0  0  0  0  0  0  0  0
   -1.1552    1.8374   -1.0605 H   0  0  0  0  0  0  0  0  0  0  0  0
    1.1830    2.0130    0.4333 H   0  0  0  0  0  0  0  0  0  0  0  0
    1.4348   -2.0580   -0.4398 H   0  0  0  0  0  0  0  0  0  0  0  0
    2.6967   -0.7149   -0.2213 H   0  0  0  0  0  0  0  0  0  0  0  0
  1  2  2  0
  2  3  1  0
  3  4  1  0
  4  5  1  0
  5  6  1  0
  5  7  1  0
  7  8  1  0
  8  9  1  0
  6  3  1  0
  9  7  1  0
  7  3  1  0
  2 10  1  0
  4 11  1  0
  4 12  1  0
  5 13  1  0
  8 14  1  0
  8 15  1  0
M  END
