
     RDKit          3D

 17 18  0  0  0  0  0  0  0  0999 V2000
   -1.4619    2.3890    0.6674 O   0  0  0  0  0  0  0  0  0  0  0  0
   -1.5056    1.2026    0.4099 C   0  0  0  0  0  0  0  0  0  0  0  0
   -0.3267    0.3417    0.5387 C   0  0  0  0  0  0  0  0  0  0  0  0
   -0.4743   -1.0085    1.1236 C   0  0  0  0  0  0  0  0  0  0  0  0
   -0.2674   -0.9366   -0.3257 C   0  0  0  0  0  0  0  0  0  0  0  0
   -1.2549   -1.0059   -1.2586 O   0  0  0  0  0  0  0  0  0  0  0  0
    1.1474   -0.5769   -0.7653 C   0  0  0  0  0  0  0  0  0  0  0  0
    0.9100    0.7950   -0.1544 C   0  0  0  0  0  0  0  0  0  0  0  0
    1.9702    1.1930    0.6430 O   0  0  0  0  0  0  0  0  0  0  0  0
   -2.4527    0.7920    0.0778 H   0  0  0  0  0  0  0  0  0  0  0  0
    0.3977   -1.3597    1.7279 H   0  0  0  0  0  0  0  0  0  0  0  0
   -1.4341   -1.2458    1.5767 H   0  0  0  0  0  0  0  0  0  0  0  0
   -1.7866   -1.8163   -1.2848 H   0  0  0  0  0  0  0  0  0  0  0  0
    1.8716   -1.1957   -0.1929 H   0  0  0  0  0  0  0  0  0  0  0  0
    1.2246   -0.6055   -1.8561 H   0  0  0  0  0  0  0  0  0  0  0  0
    0.7463    1.5461   -0.9634 H   0  0  0  0  0  0  0  0  0  0  0  0
    2.6963    1.4917    0.0361 H   0  0  0  0  0  0  0  0  0  0  0  0
  1  2  2  0
  2  3  1  0
  3  4  1  0
  4  5  1  0
  5  6  1  0
  5  7  1  0
  7  8  1  0
  8  9  1  0
  5  3  1  0
  8  3  1  0
  2 10  1  0
  4 11  1  0
  4 12  1  0
  6 13  1  0
  7 14  1  0
  7 15  1  0
  8 16  1  0
  9 17  1  0
M  END
