
     RDKit          3D

 19 19  0  0  0  0  0  0  0  0999 V2000
    0.2218    2.7228    0.0432 O   0  0  0  0  0  0  0  0  0  0  0  0
   -0.7293    1.9789   -0.0873 C   0  0  0  0  0  0  0  0  0  0  0  0
   -0.6835    0.6392    0.5232 C   0  0  0  0  0  0  0  0  0  0  0  0
   -1.7586   -0.2600   -0.0583 C   0  0  0  0  0  0  0  0  0  0  0  0
   -1.2618   -1.5824    0.5216 C   0  0  0  0  0  0  0  0  0  0  0  0
    0.2068   -1.4166    0.2121 C   0  0  0  0  0  0  0  0  0  0  0  0
    0.5269   -0.1286    0.2160 C   0  0  0  0  0  0  0  0  0  0  0  0
    1.9075    0.4069   -0.0539 C   0  0  0  0  0  0  0  0  0  0  0  0
    2.7763   -0.6466   -0.3032 O   0  0  0  0  0  0  0  0  0  0  0  0
   -1.5882    2.3268   -0.6532 H   0  0  0  0  0  0  0  0  0  0  0  0
   -0.8416    0.6540    1.6196 H   0  0  0  0  0  0  0  0  0  0  0  0
   -1.6670   -0.2386   -1.1629 H   0  0  0  0  0  0  0  0  0  0  0  0
   -2.7501    0.0142    0.3083 H   0  0  0  0  0  0  0  0  0  0  0  0
   -1.6969   -2.4519    0.0466 H   0  0  0  0  0  0  0  0  0  0  0  0
   -1.3860   -1.5056    1.6078 H   0  0  0  0  0  0  0  0  0  0  0  0
    0.9151   -2.2196    0.0125 H   0  0  0  0  0  0  0  0  0  0  0  0
    2.2019    0.9552    0.8716 H   0  0  0  0  0  0  0  0  0  0  0  0
    1.9027    1.1008   -0.9174 H   0  0  0  0  0  0  0  0  0  0  0  0
    3.7040   -0.3489   -0.1718 H   0  0  0  0  0  0  0  0  0  0  0  0
  1  2  2  0
  2  3  1  0
  3  4  1  0
  4  5  1  0
  5  6  1  0
  6  7  2  0
  7  8  1  0
  8  9  1  0
  7  3  1  0
  2 10  1  0
  3 11  1  0
  4 12  1  0
  4 13  1  0
  5 14  1  0
  5 15  1  0
  6 16  1  0
  8 17  1  0
  8 18  1  0
  9 19  1  0
M  END
