
     RDKit          3D

 17 17  0  0  0  0  0  0  0  0999 V2000
   -3.2391   -1.1498   -0.2964 O   0  0  0  0  0  0  0  0  0  0  0  0
   -2.2101   -0.9396    0.3228 C   0  0  0  0  0  0  0  0  0  0  0  0
   -1.3259    0.1777   -0.1222 C   0  0  0  0  0  0  0  0  0  0  0  0
   -0.1106    0.2837    0.7575 C   0  0  0  0  0  0  0  0  0  0  0  0
    0.7170    1.4233    0.2432 C   0  0  0  0  0  0  0  0  0  0  0  0
    1.6375    0.9922   -0.6012 C   0  0  0  0  0  0  0  0  0  0  0  0
    1.5404   -0.4727   -0.7544 C   0  0  0  0  0  0  0  0  0  0  0  0
    0.8340   -0.8548    0.5028 C   0  0  0  0  0  0  0  0  0  0  0  0
    0.9899   -1.8502    1.1588 O   0  0  0  0  0  0  0  0  0  0  0  0
   -1.9126   -1.5334    1.1844 H   0  0  0  0  0  0  0  0  0  0  0  0
   -1.8988    1.1246   -0.0326 H   0  0  0  0  0  0  0  0  0  0  0  0
   -1.0179    0.0696   -1.1668 H   0  0  0  0  0  0  0  0  0  0  0  0
   -0.3428    0.3930    1.8158 H   0  0  0  0  0  0  0  0  0  0  0  0
    0.5350    2.4528    0.5616 H   0  0  0  0  0  0  0  0  0  0  0  0
    2.3590    1.6200   -1.1081 H   0  0  0  0  0  0  0  0  0  0  0  0
    0.9133   -0.7738   -1.6181 H   0  0  0  0  0  0  0  0  0  0  0  0
    2.5317   -0.9628   -0.8470 H   0  0  0  0  0  0  0  0  0  0  0  0
  1  2  2  0
  2  3  1  0
  3  4  1  0
  4  5  1  0
  5  6  2  0
  6  7  1  0
  7  8  1  0
  8  9  2  0
  8  4  1  0
  2 10  1  0
  3 11  1  0
  3 12  1  0
  4 13  1  0
  5 14  1  0
  6 15  1  0
  7 16  1  0
  7 17  1  0
M  END
