
     RDKit          3D

 16 16  0  0  0  0  0  0  0  0999 V2000
   -1.0974    2.3678    0.0758 O   0  0  0  0  0  0  0  0  0  0  0  0
   -0.3936    1.4989   -0.3913 C   0  0  0  0  0  0  0  0  0  0  0  0
   -0.2573    0.1988    0.2849 C   0  0  0  0  0  0  0  0  0  0  0  0
   -1.3607   -0.7698   -0.1685 C   0  0  0  0  0  0  0  0  0  0  0  0
   -2.6188   -0.2434    0.1351 O   0  0  0  0  0  0  0  0  0  0  0  0
    1.0529   -0.4593   -0.0670 C   0  0  0  0  0  0  0  0  0  0  0  0
    2.3034    0.1435    0.2166 C   0  0  0  0  0  0  0  0  0  0  0  0
    1.7662   -0.8304    1.1796 O   0  0  0  0  0  0  0  0  0  0  0  0
    0.1340    1.6879   -1.3105 H   0  0  0  0  0  0  0  0  0  0  0  0
   -0.3780    0.3927    1.3714 H   0  0  0  0  0  0  0  0  0  0  0  0
   -1.2277   -1.7009    0.4286 H   0  0  0  0  0  0  0  0  0  0  0  0
   -1.2717   -0.9604   -1.2380 H   0  0  0  0  0  0  0  0  0  0  0  0
   -3.2710   -0.9511   -0.0966 H   0  0  0  0  0  0  0  0  0  0  0  0
    1.0227   -1.3017   -0.8042 H   0  0  0  0  0  0  0  0  0  0  0  0
    2.3663    1.1689    0.6014 H   0  0  0  0  0  0  0  0  0  0  0  0
    3.2308   -0.2415   -0.2172 H   0  0  0  0  0  0  0  0  0  0  0  0
  1  2  2  0
  2  3  1  0
  3  4  1  0
  4  5  1  0
  3  6  1  0
  6  7  1  0
  7  8  1  0
  8  6  1  0
  2  9  1  0
  3 10  1  0
  4 11  1  0
  4 12  1  0
  5 13  1  0
  6 14  1  0
  7 15  1  0
  7 16  1  0
M  END
