
     RDKit          3D

 17 19  0  0  0  0  0  0  0  0999 V2000
   -1.7229   -0.9947    1.9958 O   0  0  0  0  0  0  0  0  0  0  0  0
   -1.0329   -1.1772    0.9938 C   0  0  0  0  0  0  0  0  0  0  0  0
   -0.6984    0.0019    0.1725 C   0  0  0  0  0  0  0  0  0  0  0  0
   -1.7739    0.9037   -0.2799 C   0  0  0  0  0  0  0  0  0  0  0  0
   -1.0494    0.0840   -1.2601 C   0  0  0  0  0  0  0  0  0  0  0  0
    0.2311    0.5571   -1.6141 O   0  0  0  0  0  0  0  0  0  0  0  0
    0.6639    0.2020   -0.3704 C   0  0  0  0  0  0  0  0  0  0  0  0
    1.8244   -0.6064   -0.0672 C   0  0  0  0  0  0  0  0  0  0  0  0
    1.7376    0.8792    0.3639 C   0  0  0  0  0  0  0  0  0  0  0  0
   -0.7014   -2.1795    0.7544 H   0  0  0  0  0  0  0  0  0  0  0  0
   -1.5741    1.9850   -0.2621 H   0  0  0  0  0  0  0  0  0  0  0  0
   -2.8000    0.6356    0.0228 H   0  0  0  0  0  0  0  0  0  0  0  0
   -1.4802   -0.7581   -1.8025 H   0  0  0  0  0  0  0  0  0  0  0  0
    2.6053   -0.8320   -0.8040 H   0  0  0  0  0  0  0  0  0  0  0  0
    1.7855   -1.3234    0.7904 H   0  0  0  0  0  0  0  0  0  0  0  0
    1.5212    1.0591    1.4528 H   0  0  0  0  0  0  0  0  0  0  0  0
    2.4641    1.5637   -0.0861 H   0  0  0  0  0  0  0  0  0  0  0  0
  1  2  2  0
  2  3  1  0
  3  4  1  0
  4  5  1  0
  5  6  1  0
  6  7  1  0
  7  8  1  0
  8  9  1  0
  5  3  1  0
  9  7  1  0
  7  3  1  0
  2 10  1  0
  4 11  1  0
  4 12  1  0
  5 13  1  0
  8 14  1  0
  8 15  1  0
  9 16  1  0
  9 17  1  0
M  END
