
     RDKit          3D

 17 18  0  0  0  0  0  0  0  0999 V2000
    2.7277   -1.0650    0.1480 O   0  0  0  0  0  0  0  0  0  0  0  0
    2.0015   -0.2402    0.6210 C   0  0  0  0  0  0  0  0  0  0  0  0
    0.9121    0.3519   -0.2007 C   0  0  0  0  0  0  0  0  0  0  0  0
    0.4864   -0.6315   -1.2443 C   0  0  0  0  0  0  0  0  0  0  0  0
   -0.5722   -1.3123   -0.8346 C   0  0  0  0  0  0  0  0  0  0  0  0
   -0.9535   -0.8459    0.5261 C   0  0  0  0  0  0  0  0  0  0  0  0
   -0.3716    0.5090    0.5462 C   0  0  0  0  0  0  0  0  0  0  0  0
   -1.2174    1.6709    0.1398 C   0  0  0  0  0  0  0  0  0  0  0  0
   -0.6625    1.4943    1.3971 O   0  0  0  0  0  0  0  0  0  0  0  0
    2.1264    0.0835    1.6441 H   0  0  0  0  0  0  0  0  0  0  0  0
    1.2841    1.2856   -0.6621 H   0  0  0  0  0  0  0  0  0  0  0  0
    0.9613   -0.7808   -2.2023 H   0  0  0  0  0  0  0  0  0  0  0  0
   -1.1249   -2.0940   -1.3472 H   0  0  0  0  0  0  0  0  0  0  0  0
   -2.0606   -0.8340    0.6748 H   0  0  0  0  0  0  0  0  0  0  0  0
   -0.5050   -1.5505    1.2652 H   0  0  0  0  0  0  0  0  0  0  0  0
   -0.7597    2.5303   -0.4167 H   0  0  0  0  0  0  0  0  0  0  0  0
   -2.2720    1.4289   -0.0542 H   0  0  0  0  0  0  0  0  0  0  0  0
  1  2  2  0
  2  3  1  0
  3  4  1  0
  4  5  2  0
  5  6  1  0
  6  7  1  0
  7  8  1  0
  8  9  1  0
  7  3  1  0
  9  7  1  0
  2 10  1  0
  3 11  1  0
  4 12  1  0
  5 13  1  0
  6 14  1  0
  6 15  1  0
  8 16  1  0
  8 17  1  0
M  END
