
     RDKit          3D

 16 17  0  0  0  0  0  0  0  0999 V2000
    2.6327    0.9135    0.2390 O   0  0  0  0  0  0  0  0  0  0  0  0
    1.9778   -0.1352    0.1912 C   0  0  0  0  0  0  0  0  0  0  0  0
    0.7356   -0.1382   -0.6635 C   0  0  0  0  0  0  0  0  0  0  0  0
   -0.1888   -1.1579   -0.0936 C   0  0  0  0  0  0  0  0  0  0  0  0
   -1.3494   -0.4208    0.5160 C   0  0  0  0  0  0  0  0  0  0  0  0
   -1.0984    1.0307    0.4121 C   0  0  0  0  0  0  0  0  0  0  0  0
    0.0396    1.6528    0.8084 O   0  0  0  0  0  0  0  0  0  0  0  0
    0.0622    1.1807   -0.4941 C   0  0  0  0  0  0  0  0  0  0  0  0
    2.2679   -1.0278    0.7344 H   0  0  0  0  0  0  0  0  0  0  0  0
    1.0427   -0.3474   -1.7189 H   0  0  0  0  0  0  0  0  0  0  0  0
    0.3045   -1.8045    0.6722 H   0  0  0  0  0  0  0  0  0  0  0  0
   -0.4965   -1.8543   -0.9098 H   0  0  0  0  0  0  0  0  0  0  0  0
   -2.2478   -0.6596   -0.1278 H   0  0  0  0  0  0  0  0  0  0  0  0
   -1.6140   -0.7905    1.5231 H   0  0  0  0  0  0  0  0  0  0  0  0
   -1.9862    1.6954    0.2576 H   0  0  0  0  0  0  0  0  0  0  0  0
   -0.0819    1.8633   -1.3462 H   0  0  0  0  0  0  0  0  0  0  0  0
  1  2  2  0
  2  3  1  0
  3  4  1  0
  4  5  1  0
  5  6  1  0
  6  7  1  0
  7  8  1  0
  8  3  1  0
  8  6  1  0
  2  9  1  0
  3 10  1  0
  4 11  1  0
  4 12  1  0
  5 13  1  0
  5 14  1  0
  6 15  1  0
  8 16  1  0
M  END
