
     RDKit          3D

 15 15  0  0  0  0  0  0  0  0999 V2000
    2.0072    1.3501   -0.7650 O   0  0  0  0  0  0  0  0  0  0  0  0
    1.8757    0.3314   -0.1268 C   0  0  0  0  0  0  0  0  0  0  0  0
    0.5978   -0.2515    0.2801 C   0  0  0  0  0  0  0  0  0  0  0  0
   -0.1398   -1.0222   -0.8275 C   0  0  0  0  0  0  0  0  0  0  0  0
   -1.4009   -0.5875   -0.0673 C   0  0  0  0  0  0  0  0  0  0  0  0
   -0.5996    0.6799    0.2302 C   0  0  0  0  0  0  0  0  0  0  0  0
   -0.9271    1.2980    1.4125 O   0  0  0  0  0  0  0  0  0  0  0  0
    2.7862   -0.1930    0.1677 H   0  0  0  0  0  0  0  0  0  0  0  0
    0.5920   -0.8028    1.2289 H   0  0  0  0  0  0  0  0  0  0  0  0
    0.0489   -2.0913   -0.8335 H   0  0  0  0  0  0  0  0  0  0  0  0
   -0.0883   -0.4672   -1.7650 H   0  0  0  0  0  0  0  0  0  0  0  0
   -1.4666   -1.1910    0.8539 H   0  0  0  0  0  0  0  0  0  0  0  0
   -2.2867   -0.4602   -0.6705 H   0  0  0  0  0  0  0  0  0  0  0  0
   -0.6383    1.3347   -0.6491 H   0  0  0  0  0  0  0  0  0  0  0  0
   -0.3605    2.0725    1.5314 H   0  0  0  0  0  0  0  0  0  0  0  0
  1  2  2  0
  2  3  1  0
  3  4  1  0
  4  5  1  0
  5  6  1  0
  6  7  1  0
  6  3  1  0
  2  8  1  0
  3  9  1  0
  4 10  1  0
  4 11  1  0
  5 12  1  0
  5 13  1  0
  6 14  1  0
  7 15  1  0
M  END
