
     RDKit          3D

 17 17  0  0  0  0  0  0  0  0999 V2000
    1.9941   -0.2851   -1.6569 O   0  0  0  0  0  0  0  0  0  0  0  0
    1.9407   -0.7032   -0.5290 C   0  0  0  0  0  0  0  0  0  0  0  0
    0.9793   -0.0797    0.4186 C   0  0  0  0  0  0  0  0  0  0  0  0
    0.5641    1.2778   -0.0608 C   0  0  0  0  0  0  0  0  0  0  0  0
   -0.6473    1.3117   -0.7094 O   0  0  0  0  0  0  0  0  0  0  0  0
   -1.6640    0.6648   -0.0285 C   0  0  0  0  0  0  0  0  0  0  0  0
   -1.3617   -0.8291   -0.1754 C   0  0  0  0  0  0  0  0  0  0  0  0
   -0.1324   -1.0186    0.6109 C   0  0  0  0  0  0  0  0  0  0  0  0
   -0.0562   -1.9266    1.3889 O   0  0  0  0  0  0  0  0  0  0  0  0
    2.5611   -1.5124   -0.1736 H   0  0  0  0  0  0  0  0  0  0  0  0
    1.5591    0.0836    1.3749 H   0  0  0  0  0  0  0  0  0  0  0  0
    0.5151    1.9884    0.7839 H   0  0  0  0  0  0  0  0  0  0  0  0
    1.3416    1.6433   -0.7681 H   0  0  0  0  0  0  0  0  0  0  0  0
   -2.6368    0.9323   -0.4369 H   0  0  0  0  0  0  0  0  0  0  0  0
   -1.5691    0.9450    1.0398 H   0  0  0  0  0  0  0  0  0  0  0  0
   -1.1704   -1.0583   -1.2599 H   0  0  0  0  0  0  0  0  0  0  0  0
   -2.2171   -1.4338    0.1814 H   0  0  0  0  0  0  0  0  0  0  0  0
  1  2  2  0
  2  3  1  0
  3  4  1  0
  4  5  1  0
  5  6  1  0
  6  7  1  0
  7  8  1  0
  8  9  2  0
  8  3  1  0
  2 10  1  0
  3 11  1  0
  4 12  1  0
  4 13  1  0
  6 14  1  0
  6 15  1  0
  7 16  1  0
  7 17  1  0
M  END
