
     RDKit          3D

 17 18  0  0  0  0  0  0  0  0999 V2000
    2.9187    1.0997    0.7550 O   0  0  0  0  0  0  0  0  0  0  0  0
    2.3729    0.3792   -0.0496 C   0  0  0  0  0  0  0  0  0  0  0  0
    0.9602    0.0444    0.1002 C   0  0  0  0  0  0  0  0  0  0  0  0
    0.0450    1.2526    0.0179 C   0  0  0  0  0  0  0  0  0  0  0  0
   -1.3585    0.7471    0.2756 C   0  0  0  0  0  0  0  0  0  0  0  0
   -2.1242    0.3150   -0.8029 O   0  0  0  0  0  0  0  0  0  0  0  0
   -1.6009   -0.6435    0.1334 C   0  0  0  0  0  0  0  0  0  0  0  0
   -0.5474   -1.5092   -0.4543 C   0  0  0  0  0  0  0  0  0  0  0  0
    0.5483   -0.8054   -0.9534 O   0  0  0  0  0  0  0  0  0  0  0  0
    2.9420   -0.0079   -0.8715 H   0  0  0  0  0  0  0  0  0  0  0  0
    0.7261   -0.4400    1.0871 H   0  0  0  0  0  0  0  0  0  0  0  0
    0.3305    2.0140    0.7808 H   0  0  0  0  0  0  0  0  0  0  0  0
    0.1231    1.7536   -0.9717 H   0  0  0  0  0  0  0  0  0  0  0  0
   -1.9284    1.3276    1.0334 H   0  0  0  0  0  0  0  0  0  0  0  0
   -2.3346   -1.1565    0.7745 H   0  0  0  0  0  0  0  0  0  0  0  0
   -0.1393   -2.1531    0.3747 H   0  0  0  0  0  0  0  0  0  0  0  0
   -0.9335   -2.2176   -1.2292 H   0  0  0  0  0  0  0  0  0  0  0  0
  1  2  2  0
  2  3  1  0
  3  4  1  0
  4  5  1  0
  5  6  1  0
  6  7  1  0
  7  8  1  0
  8  9  1  0
  9  3  1  0
  7  5  1  0
  2 10  1  0
  3 11  1  0
  4 12  1  0
  4 13  1  0
  5 14  1  0
  7 15  1  0
  8 16  1  0
  8 17  1  0
M  END
