
     RDKit          3D

 18 19  0  0  0  0  0  0  0  0999 V2000
   -2.0992   -1.8815   -0.8467 O   0  0  0  0  0  0  0  0  0  0  0  0
   -2.0329   -0.8473   -0.2029 C   0  0  0  0  0  0  0  0  0  0  0  0
   -0.7770   -0.1422    0.0934 C   0  0  0  0  0  0  0  0  0  0  0  0
    0.2317   -0.7508    1.0353 C   0  0  0  0  0  0  0  0  0  0  0  0
    1.5925   -0.3996    0.5113 C   0  0  0  0  0  0  0  0  0  0  0  0
    1.4082    0.3517   -0.7762 C   0  0  0  0  0  0  0  0  0  0  0  0
   -0.0538    0.6338   -0.9332 C   0  0  0  0  0  0  0  0  0  0  0  0
   -0.8355    1.3976    0.0364 C   0  0  0  0  0  0  0  0  0  0  0  0
   -2.9633   -0.4398    0.1636 H   0  0  0  0  0  0  0  0  0  0  0  0
    0.0793   -0.2489    2.0271 H   0  0  0  0  0  0  0  0  0  0  0  0
    0.0360   -1.8298    1.0879 H   0  0  0  0  0  0  0  0  0  0  0  0
    2.1560   -1.3500    0.3460 H   0  0  0  0  0  0  0  0  0  0  0  0
    2.1317    0.2710    1.2138 H   0  0  0  0  0  0  0  0  0  0  0  0
    2.0426    1.2735   -0.8083 H   0  0  0  0  0  0  0  0  0  0  0  0
    1.7482   -0.2755   -1.6278 H   0  0  0  0  0  0  0  0  0  0  0  0
   -0.4531    0.5521   -1.9632 H   0  0  0  0  0  0  0  0  0  0  0  0
   -1.7910    1.8276   -0.2936 H   0  0  0  0  0  0  0  0  0  0  0  0
   -0.4204    1.8583    0.9372 H   0  0  0  0  0  0  0  0  0  0  0  0
  1  2  2  0
  2  3  1  0
  3  4  1  0
  4  5  1  0
  5  6  1  0
  6  7  1  0
  7  8  1  0
  7  3  1  0
  8  3  1  0
  2  9  1  0
  4 10  1  0
  4 11  1  0
  5 12  1  0
  5 13  1  0
  6 14  1  0
  6 15  1  0
  7 16  1  0
  8 17  1  0
  8 18  1  0
M  END
