
     RDKit          3D

 15 17  0  0  0  0  0  0  0  0999 V2000
    2.3221    1.6254   -0.2052 O   0  0  0  0  0  0  0  0  0  0  0  0
    1.7450    0.6738   -0.7446 C   0  0  0  0  0  0  0  0  0  0  0  0
    0.5579    0.1348   -0.1876 C   0  0  0  0  0  0  0  0  0  0  0  0
    0.5964   -0.9928    0.7578 C   0  0  0  0  0  0  0  0  0  0  0  0
   -0.6857   -1.1853    1.0594 C   0  0  0  0  0  0  0  0  0  0  0  0
   -1.4012   -0.1815    0.2687 C   0  0  0  0  0  0  0  0  0  0  0  0
   -0.5295    1.0242    0.3245 C   0  0  0  0  0  0  0  0  0  0  0  0
   -0.8683    1.2587   -0.9957 O   0  0  0  0  0  0  0  0  0  0  0  0
   -0.6536   -0.1101   -1.0150 C   0  0  0  0  0  0  0  0  0  0  0  0
    2.2142    0.3028   -1.6510 H   0  0  0  0  0  0  0  0  0  0  0  0
    1.4741   -1.5183    1.1048 H   0  0  0  0  0  0  0  0  0  0  0  0
   -1.1112   -1.9139    1.7331 H   0  0  0  0  0  0  0  0  0  0  0  0
   -2.4580   -0.0999    0.2996 H   0  0  0  0  0  0  0  0  0  0  0  0
   -0.4604    1.7035    1.0663 H   0  0  0  0  0  0  0  0  0  0  0  0
   -0.7417   -0.7213   -1.8153 H   0  0  0  0  0  0  0  0  0  0  0  0
  1  2  2  0
  2  3  1  0
  3  4  1  0
  4  5  2  0
  5  6  1  0
  6  7  1  0
  7  8  1  0
  8  9  1  0
  7  3  1  0
  9  3  1  0
  9  6  1  0
  2 10  1  0
  4 11  1  0
  5 12  1  0
  6 13  1  0
  7 14  1  0
  9 15  1  0
M  END
