
     RDKit          3D

 16 17  0  0  0  0  0  0  0  0999 V2000
    3.4048   -0.8638   -0.3273 O   0  0  0  0  0  0  0  0  0  0  0  0
    2.3652   -0.3166   -0.0177 C   0  0  0  0  0  0  0  0  0  0  0  0
    1.2599   -0.1108   -0.9924 C   0  0  0  0  0  0  0  0  0  0  0  0
    0.1337    0.5883   -0.2876 C   0  0  0  0  0  0  0  0  0  0  0  0
   -0.9841    0.8642   -1.0379 O   0  0  0  0  0  0  0  0  0  0  0  0
   -1.7453    0.6510    0.1123 C   0  0  0  0  0  0  0  0  0  0  0  0
   -1.9637   -0.7639    0.4704 C   0  0  0  0  0  0  0  0  0  0  0  0
   -0.6245   -0.2265    0.7171 C   0  0  0  0  0  0  0  0  0  0  0  0
    2.2879    0.0157    1.0171 H   0  0  0  0  0  0  0  0  0  0  0  0
    0.9575   -1.0444   -1.4878 H   0  0  0  0  0  0  0  0  0  0  0  0
    1.6495    0.5961   -1.7620 H   0  0  0  0  0  0  0  0  0  0  0  0
    0.5196    1.5363    0.1680 H   0  0  0  0  0  0  0  0  0  0  0  0
   -2.0874    1.4909    0.7168 H   0  0  0  0  0  0  0  0  0  0  0  0
   -2.6395   -0.9408    1.3333 H   0  0  0  0  0  0  0  0  0  0  0  0
   -2.1733   -1.4409   -0.4023 H   0  0  0  0  0  0  0  0  0  0  0  0
   -0.3603   -0.0346    1.7800 H   0  0  0  0  0  0  0  0  0  0  0  0
  1  2  2  0
  2  3  1  0
  3  4  1  0
  4  5  1  0
  5  6  1  0
  6  7  1  0
  7  8  1  0
  8  4  1  0
  8  6  1  0
  2  9  1  0
  3 10  1  0
  3 11  1  0
  4 12  1  0
  6 13  1  0
  7 14  1  0
  7 15  1  0
  8 16  1  0
M  END
