
     RDKit          3D

 14 15  0  0  0  0  0  0  0  0999 V2000
    2.0770    1.9111    0.6965 O   0  0  0  0  0  0  0  0  0  0  0  0
    1.9495    0.8607    0.1114 C   0  0  0  0  0  0  0  0  0  0  0  0
    0.6930    0.1260   -0.0545 C   0  0  0  0  0  0  0  0  0  0  0  0
   -0.6171    0.8633   -0.2357 C   0  0  0  0  0  0  0  0  0  0  0  0
   -1.2934   -0.3932    0.3375 C   0  0  0  0  0  0  0  0  0  0  0  0
   -2.0162   -1.1142   -0.5847 O   0  0  0  0  0  0  0  0  0  0  0  0
    0.1112   -0.9061    0.5603 C   0  0  0  0  0  0  0  0  0  0  0  0
    0.7513   -1.0816   -0.7699 O   0  0  0  0  0  0  0  0  0  0  0  0
    2.8774    0.4480   -0.3223 H   0  0  0  0  0  0  0  0  0  0  0  0
   -0.8248    1.0336   -1.3010 H   0  0  0  0  0  0  0  0  0  0  0  0
   -0.6878    1.7398    0.4180 H   0  0  0  0  0  0  0  0  0  0  0  0
   -1.8437   -0.1763    1.2494 H   0  0  0  0  0  0  0  0  0  0  0  0
   -1.4989   -1.5492   -1.2754 H   0  0  0  0  0  0  0  0  0  0  0  0
    0.3225   -1.7620    1.1704 H   0  0  0  0  0  0  0  0  0  0  0  0
  1  2  2  0
  2  3  1  0
  3  4  1  0
  4  5  1  0
  5  6  1  0
  5  7  1  0
  7  8  1  0
  7  3  1  0
  8  3  1  0
  2  9  1  0
  4 10  1  0
  4 11  1  0
  5 12  1  0
  6 13  1  0
  7 14  1  0
M  END
