
     RDKit          3D

 17 18  0  0  0  0  0  0  0  0999 V2000
    2.6191   -0.8950    1.2477 O   0  0  0  0  0  0  0  0  0  0  0  0
    1.9739   -0.8668    0.2010 C   0  0  0  0  0  0  0  0  0  0  0  0
    0.7474   -0.1385    0.1646 C   0  0  0  0  0  0  0  0  0  0  0  0
    0.6637    1.1773   -0.5435 C   0  0  0  0  0  0  0  0  0  0  0  0
   -0.4658    1.3002    0.4728 C   0  0  0  0  0  0  0  0  0  0  0  0
   -1.4855    0.3036   -0.0165 C   0  0  0  0  0  0  0  0  0  0  0  0
   -0.5071   -0.8436   -0.3488 C   0  0  0  0  0  0  0  0  0  0  0  0
   -0.8037   -1.9793    0.3560 O   0  0  0  0  0  0  0  0  0  0  0  0
    0.3185    0.5186    1.3171 O   0  0  0  0  0  0  0  0  0  0  0  0
    2.3822   -1.3997   -0.6276 H   0  0  0  0  0  0  0  0  0  0  0  0
    1.4897    1.8708   -0.4263 H   0  0  0  0  0  0  0  0  0  0  0  0
    0.2495    1.0435   -1.5698 H   0  0  0  0  0  0  0  0  0  0  0  0
   -0.7703    2.2702    0.7794 H   0  0  0  0  0  0  0  0  0  0  0  0
   -1.9889    0.6691   -0.9114 H   0  0  0  0  0  0  0  0  0  0  0  0
   -2.1758   -0.0271    0.7785 H   0  0  0  0  0  0  0  0  0  0  0  0
   -0.4760   -0.9704   -1.4402 H   0  0  0  0  0  0  0  0  0  0  0  0
   -1.7709   -2.0330    0.5671 H   0  0  0  0  0  0  0  0  0  0  0  0
  1  2  2  0
  2  3  1  0
  3  4  1  0
  4  5  1  0
  5  6  1  0
  6  7  1  0
  7  8  1  0
  5  9  1  0
  7  3  1  0
  9  3  1  0
  2 10  1  0
  4 11  1  0
  4 12  1  0
  5 13  1  0
  6 14  1  0
  6 15  1  0
  7 16  1  0
  8 17  1  0
M  END
