
     RDKit          3D

 13 13  0  0  0  0  0  0  0  0999 V2000
    2.6067   -2.7986    0.3813 O   0  0  0  0  0  0  0  0  0  0  0  0
    2.7471   -1.5497    0.3987 C   0  0  0  0  0  0  0  0  0  0  0  0
    1.6384   -0.6975    0.0716 C   0  0  0  0  0  0  0  0  0  0  0  0
    0.7104    0.0252   -0.2201 C   0  0  0  0  0  0  0  0  0  0  0  0
   -0.4123    0.9054   -0.5995 C   0  0  0  0  0  0  0  0  0  0  0  0
   -1.6994    0.2373   -0.8750 C   0  0  0  0  0  0  0  0  0  0  0  0
   -1.5860    0.9959    0.3862 C   0  0  0  0  0  0  0  0  0  0  0  0
    3.7251   -1.1802    0.6674 H   0  0  0  0  0  0  0  0  0  0  0  0
   -0.1660    1.8134   -1.1861 H   0  0  0  0  0  0  0  0  0  0  0  0
   -1.7752   -0.8765   -0.8415 H   0  0  0  0  0  0  0  0  0  0  0  0
   -2.3390    0.6734   -1.6711 H   0  0  0  0  0  0  0  0  0  0  0  0
   -1.4339    0.4360    1.3319 H   0  0  0  0  0  0  0  0  0  0  0  0
   -2.0159    2.0159    0.4730 H   0  0  0  0  0  0  0  0  0  0  0  0
  1  2  2  0
  2  3  1  0
  3  4  3  0
  4  5  1  0
  5  6  1  0
  6  7  1  0
  7  5  1  0
  2  8  1  0
  5  9  1  0
  6 10  1  0
  6 11  1  0
  7 12  1  0
  7 13  1  0
M  END
