
     RDKit          3D

 17 17  0  0  0  0  0  0  0  0999 V2000
   -1.4998   -0.4563    1.9785 O   0  0  0  0  0  0  0  0  0  0  0  0
   -1.9017   -0.0035    0.9297 C   0  0  0  0  0  0  0  0  0  0  0  0
   -1.0725   -0.0600   -0.2813 C   0  0  0  0  0  0  0  0  0  0  0  0
   -0.6259    1.3062   -0.6531 C   0  0  0  0  0  0  0  0  0  0  0  0
    0.6361    1.4412   -0.3065 C   0  0  0  0  0  0  0  0  0  0  0  0
    1.1627    0.2187    0.3179 C   0  0  0  0  0  0  0  0  0  0  0  0
    2.4525   -0.0773   -0.1088 O   0  0  0  0  0  0  0  0  0  0  0  0
    0.1864   -0.8581   -0.0798 C   0  0  0  0  0  0  0  0  0  0  0  0
    0.5923   -1.4153   -1.2934 O   0  0  0  0  0  0  0  0  0  0  0  0
   -2.8780    0.4465    0.8809 H   0  0  0  0  0  0  0  0  0  0  0  0
   -1.6317   -0.4654   -1.1515 H   0  0  0  0  0  0  0  0  0  0  0  0
   -1.2632    2.0826   -1.1455 H   0  0  0  0  0  0  0  0  0  0  0  0
    1.2101    2.3768   -0.4768 H   0  0  0  0  0  0  0  0  0  0  0  0
    1.1099    0.2967    1.4359 H   0  0  0  0  0  0  0  0  0  0  0  0
    2.7661   -0.8260    0.4834 H   0  0  0  0  0  0  0  0  0  0  0  0
    0.0837   -1.6079    0.7255 H   0  0  0  0  0  0  0  0  0  0  0  0
    0.6732   -2.3991   -1.2551 H   0  0  0  0  0  0  0  0  0  0  0  0
  1  2  2  0
  2  3  1  0
  3  4  1  0
  4  5  2  0
  5  6  1  0
  6  7  1  0
  6  8  1  0
  8  9  1  0
  8  3  1  0
  2 10  1  0
  3 11  1  0
  4 12  1  0
  5 13  1  0
  6 14  1  0
  7 15  1  0
  8 16  1  0
  9 17  1  0
M  END
