
     RDKit          3D

 13 12  0  0  0  0  0  0  0  0999 V2000
   -2.4586    0.2020    0.3883 O   0  0  0  0  0  0  0  0  0  0  0  0
   -1.6176   -0.4085   -0.2360 C   0  0  0  0  0  0  0  0  0  0  0  0
   -0.2429    0.1321   -0.3464 C   0  0  0  0  0  0  0  0  0  0  0  0
   -0.1083    1.3910    0.4498 C   0  0  0  0  0  0  0  0  0  0  0  0
   -0.0011    1.3379    1.6615 O   0  0  0  0  0  0  0  0  0  0  0  0
    0.7997   -0.8251    0.1565 C   0  0  0  0  0  0  0  0  0  0  0  0
    2.0852   -0.3268    0.0564 O   0  0  0  0  0  0  0  0  0  0  0  0
   -1.8863   -1.3298   -0.6967 H   0  0  0  0  0  0  0  0  0  0  0  0
   -0.0444    0.3382   -1.4174 H   0  0  0  0  0  0  0  0  0  0  0  0
   -0.1061    2.3516   -0.0519 H   0  0  0  0  0  0  0  0  0  0  0  0
    0.6153   -1.0014    1.2528 H   0  0  0  0  0  0  0  0  0  0  0  0
    0.6619   -1.8038   -0.3495 H   0  0  0  0  0  0  0  0  0  0  0  0
    2.3032   -0.0575   -0.8672 H   0  0  0  0  0  0  0  0  0  0  0  0
  1  2  2  0
  2  3  1  0
  3  4  1  0
  4  5  2  0
  3  6  1  0
  6  7  1  0
  2  8  1  0
  3  9  1  0
  4 10  1  0
  6 11  1  0
  6 12  1  0
  7 13  1  0
M  END
