
     RDKit          3D

 19 20  0  0  0  0  0  0  0  0999 V2000
    3.4000    0.6814    0.7348 O   0  0  0  0  0  0  0  0  0  0  0  0
    2.7571   -0.0172    0.0003 C   0  0  0  0  0  0  0  0  0  0  0  0
    1.4886    0.3212   -0.6409 C   0  0  0  0  0  0  0  0  0  0  0  0
    0.4194    0.9027    0.2953 C   0  0  0  0  0  0  0  0  0  0  0  0
   -0.5507    0.0197   -0.4155 C   0  0  0  0  0  0  0  0  0  0  0  0
   -1.7057   -0.5111    0.3146 C   0  0  0  0  0  0  0  0  0  0  0  0
   -2.4347    0.3189   -0.7184 C   0  0  0  0  0  0  0  0  0  0  0  0
   -1.2614    0.5380   -1.4469 O   0  0  0  0  0  0  0  0  0  0  0  0
    0.5832   -0.9118   -0.7362 C   0  0  0  0  0  0  0  0  0  0  0  0
    3.1722   -1.0196   -0.2095 H   0  0  0  0  0  0  0  0  0  0  0  0
    1.5168    0.8735   -1.5858 H   0  0  0  0  0  0  0  0  0  0  0  0
    0.6294    0.6058    1.3489 H   0  0  0  0  0  0  0  0  0  0  0  0
    0.3255    1.9823    0.1636 H   0  0  0  0  0  0  0  0  0  0  0  0
   -1.8425   -0.2212    1.3561 H   0  0  0  0  0  0  0  0  0  0  0  0
   -1.8370   -1.6135    0.1222 H   0  0  0  0  0  0  0  0  0  0  0  0
   -2.8267    1.2354   -0.2668 H   0  0  0  0  0  0  0  0  0  0  0  0
   -3.1519   -0.2240   -1.3361 H   0  0  0  0  0  0  0  0  0  0  0  0
    0.5421   -1.3881   -1.7078 H   0  0  0  0  0  0  0  0  0  0  0  0
    0.7764   -1.5725    0.1437 H   0  0  0  0  0  0  0  0  0  0  0  0
  1  2  2  0
  2  3  1  0
  3  4  1  0
  4  5  1  0
  5  6  1  0
  6  7  1  0
  7  8  1  0
  5  9  1  0
  9  3  1  0
  8  5  1  0
  2 10  1  0
  3 11  1  0
  4 12  1  0
  4 13  1  0
  6 14  1  0
  6 15  1  0
  7 16  1  0
  7 17  1  0
  9 18  1  0
  9 19  1  0
M  END
