
     RDKit          3D

 19 19  0  0  0  0  0  0  0  0999 V2000
    2.9807    1.4191   -0.0540 O   0  0  0  0  0  0  0  0  0  0  0  0
    2.6710    0.2942    0.2004 C   0  0  0  0  0  0  0  0  0  0  0  0
    1.7174   -0.5381   -0.5850 C   0  0  0  0  0  0  0  0  0  0  0  0
    0.3660   -0.3962    0.0887 C   0  0  0  0  0  0  0  0  0  0  0  0
   -0.0222    1.0422    0.0703 C   0  0  0  0  0  0  0  0  0  0  0  0
   -1.2536    1.2031   -0.5762 O   0  0  0  0  0  0  0  0  0  0  0  0
   -2.1738    0.4171    0.1244 C   0  0  0  0  0  0  0  0  0  0  0  0
   -1.8472   -1.0128   -0.1619 C   0  0  0  0  0  0  0  0  0  0  0  0
   -0.5489   -1.2344   -0.5253 O   0  0  0  0  0  0  0  0  0  0  0  0
    3.1126   -0.1950    1.0832 H   0  0  0  0  0  0  0  0  0  0  0  0
    2.0734   -1.5665   -0.5939 H   0  0  0  0  0  0  0  0  0  0  0  0
    1.6526   -0.1264   -1.6341 H   0  0  0  0  0  0  0  0  0  0  0  0
    0.5124   -0.7860    1.1277 H   0  0  0  0  0  0  0  0  0  0  0  0
    0.6903    1.7062   -0.4281 H   0  0  0  0  0  0  0  0  0  0  0  0
   -0.0786    1.3932    1.1267 H   0  0  0  0  0  0  0  0  0  0  0  0
   -3.1857    0.7177   -0.1757 H   0  0  0  0  0  0  0  0  0  0  0  0
   -1.9880    0.6210    1.2218 H   0  0  0  0  0  0  0  0  0  0  0  0
   -2.4997   -1.3378   -1.0166 H   0  0  0  0  0  0  0  0  0  0  0  0
   -2.1786   -1.6207    0.7077 H   0  0  0  0  0  0  0  0  0  0  0  0
  1  2  2  0
  2  3  1  0
  3  4  1  0
  4  5  1  0
  5  6  1  0
  6  7  1  0
  7  8  1  0
  8  9  1  0
  9  4  1  0
  2 10  1  0
  3 11  1  0
  3 12  1  0
  4 13  1  0
  5 14  1  0
  5 15  1  0
  7 16  1  0
  7 17  1  0
  8 18  1  0
  8 19  1  0
M  END
