
     RDKit          3D

 14 15  0  0  0  0  0  0  0  0999 V2000
    2.7249   -0.3721    0.1060 O   0  0  0  0  0  0  0  0  0  0  0  0
    1.6903   -0.2018   -0.5096 C   0  0  0  0  0  0  0  0  0  0  0  0
    0.4261   -0.0648    0.2283 C   0  0  0  0  0  0  0  0  0  0  0  0
    0.5166   -0.1430    1.6057 O   0  0  0  0  0  0  0  0  0  0  0  0
   -0.3560    1.2108   -0.1143 C   0  0  0  0  0  0  0  0  0  0  0  0
   -1.5486    0.2942   -0.2458 C   0  0  0  0  0  0  0  0  0  0  0  0
   -1.4860   -0.5155   -1.3499 O   0  0  0  0  0  0  0  0  0  0  0  0
   -0.6528   -0.9301   -0.3578 C   0  0  0  0  0  0  0  0  0  0  0  0
    1.7598   -0.1598   -1.5868 H   0  0  0  0  0  0  0  0  0  0  0  0
    0.6008   -1.0617    1.9497 H   0  0  0  0  0  0  0  0  0  0  0  0
   -0.0198    1.6357   -1.0724 H   0  0  0  0  0  0  0  0  0  0  0  0
   -0.4249    1.9420    0.6833 H   0  0  0  0  0  0  0  0  0  0  0  0
   -2.3066    0.2243    0.5165 H   0  0  0  0  0  0  0  0  0  0  0  0
   -0.9237   -1.8582    0.1473 H   0  0  0  0  0  0  0  0  0  0  0  0
  1  2  2  0
  2  3  1  0
  3  4  1  0
  3  5  1  0
  5  6  1  0
  6  7  1  0
  7  8  1  0
  8  3  1  0
  8  6  1  0
  2  9  1  0
  4 10  1  0
  5 11  1  0
  5 12  1  0
  6 13  1  0
  8 14  1  0
M  END
