
     RDKit          3D

 18 18  0  0  0  0  0  0  0  0999 V2000
    1.9677    1.4912    0.5105 O   0  0  0  0  0  0  0  0  0  0  0  0
    2.3693    0.6478   -0.2411 C   0  0  0  0  0  0  0  0  0  0  0  0
    1.6432   -0.6133   -0.4022 C   0  0  0  0  0  0  0  0  0  0  0  0
    0.9636   -1.2758    0.7334 C   0  0  0  0  0  0  0  0  0  0  0  0
    0.1644   -0.6202   -0.3633 C   0  0  0  0  0  0  0  0  0  0  0  0
   -0.6400    0.5576    0.0768 C   0  0  0  0  0  0  0  0  0  0  0  0
   -2.1006    0.1727   -0.0167 C   0  0  0  0  0  0  0  0  0  0  0  0
   -2.9476    1.1957    0.3698 O   0  0  0  0  0  0  0  0  0  0  0  0
    3.2738    0.8204   -0.8032 H   0  0  0  0  0  0  0  0  0  0  0  0
    2.1012   -1.3316   -1.1264 H   0  0  0  0  0  0  0  0  0  0  0  0
    0.8567   -2.3802    0.7539 H   0  0  0  0  0  0  0  0  0  0  0  0
    0.9618   -0.8362    1.7515 H   0  0  0  0  0  0  0  0  0  0  0  0
   -0.3652   -1.2757   -1.1145 H   0  0  0  0  0  0  0  0  0  0  0  0
   -0.4680    1.4634   -0.5376 H   0  0  0  0  0  0  0  0  0  0  0  0
   -0.4507    0.8258    1.1531 H   0  0  0  0  0  0  0  0  0  0  0  0
   -2.2535   -0.7443    0.5906 H   0  0  0  0  0  0  0  0  0  0  0  0
   -2.2848   -0.0624   -1.1034 H   0  0  0  0  0  0  0  0  0  0  0  0
   -2.7914    1.9651   -0.2311 H   0  0  0  0  0  0  0  0  0  0  0  0
  1  2  2  0
  2  3  1  0
  3  4  1  0
  4  5  1  0
  5  6  1  0
  6  7  1  0
  7  8  1  0
  5  3  1  0
  2  9  1  0
  3 10  1  0
  4 11  1  0
  4 12  1  0
  5 13  1  0
  6 14  1  0
  6 15  1  0
  7 16  1  0
  7 17  1  0
  8 18  1  0
M  END
