
     RDKit          3D

 21 22  0  0  0  0  0  0  0  0999 V2000
   -3.1096    1.1850   -1.1939 O   0  0  0  0  0  0  0  0  0  0  0  0
   -2.1644    0.8587   -0.4866 C   0  0  0  0  0  0  0  0  0  0  0  0
   -1.3216   -0.2960   -0.9298 C   0  0  0  0  0  0  0  0  0  0  0  0
   -0.2395   -0.4811    0.1142 C   0  0  0  0  0  0  0  0  0  0  0  0
    0.6256    0.7497    0.2564 C   0  0  0  0  0  0  0  0  0  0  0  0
    1.3816    1.2769   -0.9047 C   0  0  0  0  0  0  0  0  0  0  0  0
    2.1097    0.6252    0.2703 C   0  0  0  0  0  0  0  0  0  0  0  0
    0.3218   -1.7762    0.4654 C   0  0  0  0  0  0  0  0  0  0  0  0
   -0.6463   -1.1415    1.4075 C   0  0  0  0  0  0  0  0  0  0  0  0
   -1.9772    1.4111    0.4205 H   0  0  0  0  0  0  0  0  0  0  0  0
   -1.8992   -1.1992   -1.1208 H   0  0  0  0  0  0  0  0  0  0  0  0
   -0.8016    0.0413   -1.8553 H   0  0  0  0  0  0  0  0  0  0  0  0
    0.1746    1.4928    0.9557 H   0  0  0  0  0  0  0  0  0  0  0  0
    1.4672    0.7311   -1.8562 H   0  0  0  0  0  0  0  0  0  0  0  0
    1.4470    2.3780   -0.9831 H   0  0  0  0  0  0  0  0  0  0  0  0
    2.5358   -0.3745    0.0980 H   0  0  0  0  0  0  0  0  0  0  0  0
    2.7110    1.3387    0.8952 H   0  0  0  0  0  0  0  0  0  0  0  0
   -0.0399   -2.6819   -0.0959 H   0  0  0  0  0  0  0  0  0  0  0  0
    1.3824   -1.8839    0.7633 H   0  0  0  0  0  0  0  0  0  0  0  0
   -1.6605   -1.5900    1.4397 H   0  0  0  0  0  0  0  0  0  0  0  0
   -0.2969   -0.6641    2.3404 H   0  0  0  0  0  0  0  0  0  0  0  0
  1  2  2  0
  2  3  1  0
  3  4  1  0
  4  5  1  0
  5  6  1  0
  6  7  1  0
  4  8  1  0
  8  9  1  0
  9  4  1  0
  7  5  1  0
  2 10  1  0
  3 11  1  0
  3 12  1  0
  5 13  1  0
  6 14  1  0
  6 15  1  0
  7 16  1  0
  7 17  1  0
  8 18  1  0
  8 19  1  0
  9 20  1  0
  9 21  1  0
M  END
