
     RDKit          3D

 19 19  0  0  0  0  0  0  0  0999 V2000
    4.2506    0.2168    0.2714 O   0  0  0  0  0  0  0  0  0  0  0  0
    3.0819    0.2306    0.6208 C   0  0  0  0  0  0  0  0  0  0  0  0
    1.9791   -0.2621   -0.2653 C   0  0  0  0  0  0  0  0  0  0  0  0
    0.8059   -0.1217    0.3884 O   0  0  0  0  0  0  0  0  0  0  0  0
   -0.3374   -0.4990   -0.2099 C   0  0  0  0  0  0  0  0  0  0  0  0
   -1.3869   -1.2558    0.4866 C   0  0  0  0  0  0  0  0  0  0  0  0
   -2.1366    0.0489    0.7893 C   0  0  0  0  0  0  0  0  0  0  0  0
   -1.3070    0.6844   -0.3257 C   0  0  0  0  0  0  0  0  0  0  0  0
   -0.7681    1.8819    0.1424 O   0  0  0  0  0  0  0  0  0  0  0  0
    2.8915    0.6265    1.6237 H   0  0  0  0  0  0  0  0  0  0  0  0
    1.9947    0.3910   -1.1716 H   0  0  0  0  0  0  0  0  0  0  0  0
    2.2545   -1.2820   -0.5659 H   0  0  0  0  0  0  0  0  0  0  0  0
   -0.1474   -0.9013   -1.2283 H   0  0  0  0  0  0  0  0  0  0  0  0
   -2.0235   -1.8707   -0.1886 H   0  0  0  0  0  0  0  0  0  0  0  0
   -1.1796   -1.7939    1.3999 H   0  0  0  0  0  0  0  0  0  0  0  0
   -1.9197    0.4536    1.8017 H   0  0  0  0  0  0  0  0  0  0  0  0
   -3.1899    0.0498    0.5090 H   0  0  0  0  0  0  0  0  0  0  0  0
   -1.8205    0.7478   -1.2897 H   0  0  0  0  0  0  0  0  0  0  0  0
   -1.0419    2.6550   -0.4068 H   0  0  0  0  0  0  0  0  0  0  0  0
  1  2  2  0
  2  3  1  0
  3  4  1  0
  4  5  1  0
  5  6  1  0
  6  7  1  0
  7  8  1  0
  8  9  1  0
  8  5  1  0
  2 10  1  0
  3 11  1  0
  3 12  1  0
  5 13  1  0
  6 14  1  0
  6 15  1  0
  7 16  1  0
  7 17  1  0
  8 18  1  0
  9 19  1  0
M  END
