
     RDKit          3D

 19 20  0  0  0  0  0  0  0  0999 V2000
   -0.8044    1.7008    1.7841 O   0  0  0  0  0  0  0  0  0  0  0  0
   -1.0088    1.4597    0.6070 C   0  0  0  0  0  0  0  0  0  0  0  0
   -0.6039    0.1530    0.0180 C   0  0  0  0  0  0  0  0  0  0  0  0
    0.5932    0.2619   -0.8684 C   0  0  0  0  0  0  0  0  0  0  0  0
    1.8437    0.7744   -0.2234 C   0  0  0  0  0  0  0  0  0  0  0  0
    1.7468   -0.6561   -0.7371 C   0  0  0  0  0  0  0  0  0  0  0  0
   -0.6375   -0.9837    0.9846 C   0  0  0  0  0  0  0  0  0  0  0  0
   -1.1164   -1.7966   -0.0638 O   0  0  0  0  0  0  0  0  0  0  0  0
   -1.7586   -0.6426   -0.5500 C   0  0  0  0  0  0  0  0  0  0  0  0
   -1.4859    2.1737   -0.0501 H   0  0  0  0  0  0  0  0  0  0  0  0
    0.3519    0.6217   -1.9016 H   0  0  0  0  0  0  0  0  0  0  0  0
    1.8764    0.9523    0.8649 H   0  0  0  0  0  0  0  0  0  0  0  0
    2.5320    1.4361   -0.7939 H   0  0  0  0  0  0  0  0  0  0  0  0
    2.3445   -0.8983   -1.6509 H   0  0  0  0  0  0  0  0  0  0  0  0
    1.8058   -1.4306    0.0478 H   0  0  0  0  0  0  0  0  0  0  0  0
   -1.4231   -0.8114    1.7556 H   0  0  0  0  0  0  0  0  0  0  0  0
    0.3016   -1.3183    1.4225 H   0  0  0  0  0  0  0  0  0  0  0  0
   -2.6891   -0.3958    0.0101 H   0  0  0  0  0  0  0  0  0  0  0  0
   -1.8684   -0.6002   -1.6453 H   0  0  0  0  0  0  0  0  0  0  0  0
  1  2  2  0
  2  3  1  0
  3  4  1  0
  4  5  1  0
  5  6  1  0
  3  7  1  0
  7  8  1  0
  8  9  1  0
  9  3  1  0
  6  4  1  0
  2 10  1  0
  4 11  1  0
  5 12  1  0
  5 13  1  0
  6 14  1  0
  6 15  1  0
  7 16  1  0
  7 17  1  0
  9 18  1  0
  9 19  1  0
M  END
