
     RDKit          3D

 15 16  0  0  0  0  0  0  0  0999 V2000
   -3.0815   -0.5740    0.9801 O   0  0  0  0  0  0  0  0  0  0  0  0
   -1.8862   -0.5502    0.6728 C   0  0  0  0  0  0  0  0  0  0  0  0
   -1.4226    0.6633   -0.0282 C   0  0  0  0  0  0  0  0  0  0  0  0
    0.0344    0.6499   -0.4138 C   0  0  0  0  0  0  0  0  0  0  0  0
    0.9920    0.5148    0.6452 C   0  0  0  0  0  0  0  0  0  0  0  0
    1.5207   -0.6952    1.2104 O   0  0  0  0  0  0  0  0  0  0  0  0
    2.2089   -0.7215    0.0218 C   0  0  0  0  0  0  0  0  0  0  0  0
    3.3439   -0.8478   -0.3901 O   0  0  0  0  0  0  0  0  0  0  0  0
    0.8619   -0.5148   -0.5493 C   0  0  0  0  0  0  0  0  0  0  0  0
   -1.2844   -1.3768    0.9226 H   0  0  0  0  0  0  0  0  0  0  0  0
   -2.0042    0.6850   -0.9994 H   0  0  0  0  0  0  0  0  0  0  0  0
   -1.6678    1.5828    0.5537 H   0  0  0  0  0  0  0  0  0  0  0  0
    0.2198    1.4339   -1.2207 H   0  0  0  0  0  0  0  0  0  0  0  0
    1.8904    1.2045    0.5563 H   0  0  0  0  0  0  0  0  0  0  0  0
    0.2748   -1.4538   -0.3025 H   0  0  0  0  0  0  0  0  0  0  0  0
  1  2  2  0
  2  3  1  0
  3  4  1  0
  4  5  1  0
  5  6  1  0
  6  7  1  0
  7  8  2  0
  7  9  1  0
  9  4  1  0
  9  5  1  0
  2 10  1  0
  3 11  1  0
  3 12  1  0
  4 13  1  0
  5 14  1  0
  9 15  1  0
M  END
