
     RDKit          3D

 17 17  0  0  0  0  0  0  0  0999 V2000
   -3.2474    0.2871    1.2969 O   0  0  0  0  0  0  0  0  0  0  0  0
   -2.8135    0.4789    0.1881 C   0  0  0  0  0  0  0  0  0  0  0  0
   -1.6694   -0.3286   -0.2846 C   0  0  0  0  0  0  0  0  0  0  0  0
   -0.4242    0.2712    0.3601 C   0  0  0  0  0  0  0  0  0  0  0  0
    0.8216   -0.4546   -0.0345 C   0  0  0  0  0  0  0  0  0  0  0  0
    2.0300    0.1510    0.6096 C   0  0  0  0  0  0  0  0  0  0  0  0
    2.6372   -0.1769   -0.7019 C   0  0  0  0  0  0  0  0  0  0  0  0
    3.8135   -0.3887   -1.0694 O   0  0  0  0  0  0  0  0  0  0  0  0
    1.3779   -0.1384   -1.2735 O   0  0  0  0  0  0  0  0  0  0  0  0
   -3.2396    1.2203   -0.4581 H   0  0  0  0  0  0  0  0  0  0  0  0
   -1.6161   -0.2826   -1.3946 H   0  0  0  0  0  0  0  0  0  0  0  0
   -1.7709   -1.4006   -0.0288 H   0  0  0  0  0  0  0  0  0  0  0  0
   -0.5597    0.1742    1.4518 H   0  0  0  0  0  0  0  0  0  0  0  0
   -0.3732    1.3354    0.1199 H   0  0  0  0  0  0  0  0  0  0  0  0
    0.7077   -1.5525    0.0705 H   0  0  0  0  0  0  0  0  0  0  0  0
    2.4392   -0.4317    1.4559 H   0  0  0  0  0  0  0  0  0  0  0  0
    1.8869    1.2364    0.7982 H   0  0  0  0  0  0  0  0  0  0  0  0
  1  2  2  0
  2  3  1  0
  3  4  1  0
  4  5  1  0
  5  6  1  0
  6  7  1  0
  7  8  2  0
  7  9  1  0
  9  5  1  0
  2 10  1  0
  3 11  1  0
  3 12  1  0
  4 13  1  0
  4 14  1  0
  5 15  1  0
  6 16  1  0
  6 17  1  0
M  END
