
     RDKit          3D

 17 18  0  0  0  0  0  0  0  0999 V2000
   -3.2798   -0.7532   -0.5834 O   0  0  0  0  0  0  0  0  0  0  0  0
   -2.1198   -0.9903   -0.3196 C   0  0  0  0  0  0  0  0  0  0  0  0
   -1.2720    0.0312    0.3184 C   0  0  0  0  0  0  0  0  0  0  0  0
   -0.8551    1.0940   -0.6671 C   0  0  0  0  0  0  0  0  0  0  0  0
    0.5682    0.9198   -0.1549 C   0  0  0  0  0  0  0  0  0  0  0  0
    1.2103   -0.3919   -0.3651 C   0  0  0  0  0  0  0  0  0  0  0  0
    2.6019   -0.4934    0.2084 C   0  0  0  0  0  0  0  0  0  0  0  0
    2.8253    0.0721    1.2674 O   0  0  0  0  0  0  0  0  0  0  0  0
    0.1238   -0.3460    0.6292 C   0  0  0  0  0  0  0  0  0  0  0  0
   -1.7320   -1.9588   -0.5628 H   0  0  0  0  0  0  0  0  0  0  0  0
   -1.7943    0.5108    1.1934 H   0  0  0  0  0  0  0  0  0  0  0  0
   -1.2000    2.1141   -0.4264 H   0  0  0  0  0  0  0  0  0  0  0  0
   -1.0129    0.8027   -1.7101 H   0  0  0  0  0  0  0  0  0  0  0  0
    1.0304    1.7110    0.4436 H   0  0  0  0  0  0  0  0  0  0  0  0
    1.1141   -0.9377   -1.3235 H   0  0  0  0  0  0  0  0  0  0  0  0
    3.3939   -1.0264   -0.2551 H   0  0  0  0  0  0  0  0  0  0  0  0
    0.3981   -0.3580    1.7196 H   0  0  0  0  0  0  0  0  0  0  0  0
  1  2  2  0
  2  3  1  0
  3  4  1  0
  4  5  1  0
  5  6  1  0
  6  7  1  0
  7  8  2  0
  6  9  1  0
  9  3  1  0
  9  5  1  0
  2 10  1  0
  3 11  1  0
  4 12  1  0
  4 13  1  0
  5 14  1  0
  6 15  1  0
  7 16  1  0
  9 17  1  0
M  END
