
     RDKit          3D

 19 19  0  0  0  0  0  0  0  0999 V2000
    3.3404   -0.1207    0.8018 O   0  0  0  0  0  0  0  0  0  0  0  0
    2.9095   -0.7496   -0.1439 C   0  0  0  0  0  0  0  0  0  0  0  0
    1.4704   -0.6432   -0.4897 C   0  0  0  0  0  0  0  0  0  0  0  0
    0.7726    0.2687    0.4391 C   0  0  0  0  0  0  0  0  0  0  0  0
   -0.6839    0.4541    0.1884 C   0  0  0  0  0  0  0  0  0  0  0  0
   -1.6400   -0.7043    0.2288 C   0  0  0  0  0  0  0  0  0  0  0  0
   -2.9041   -0.2621   -0.1604 O   0  0  0  0  0  0  0  0  0  0  0  0
   -1.1823    1.7327   -0.3535 C   0  0  0  0  0  0  0  0  0  0  0  0
   -1.1869    1.4921    1.1292 O   0  0  0  0  0  0  0  0  0  0  0  0
    3.5984   -1.3673   -0.7007 H   0  0  0  0  0  0  0  0  0  0  0  0
    1.4415   -0.2492   -1.5482 H   0  0  0  0  0  0  0  0  0  0  0  0
    1.0690   -1.6623   -0.5478 H   0  0  0  0  0  0  0  0  0  0  0  0
    0.9396   -0.0759    1.4858 H   0  0  0  0  0  0  0  0  0  0  0  0
    1.2556    1.2691    0.3780 H   0  0  0  0  0  0  0  0  0  0  0  0
   -1.7068   -1.1038    1.2829 H   0  0  0  0  0  0  0  0  0  0  0  0
   -1.3673   -1.5377   -0.4075 H   0  0  0  0  0  0  0  0  0  0  0  0
   -3.4476   -1.0974   -0.3176 H   0  0  0  0  0  0  0  0  0  0  0  0
   -0.4468    2.5265   -0.6173 H   0  0  0  0  0  0  0  0  0  0  0  0
   -2.2314    1.8304   -0.6473 H   0  0  0  0  0  0  0  0  0  0  0  0
  1  2  2  0
  2  3  1  0
  3  4  1  0
  4  5  1  0
  5  6  1  0
  6  7  1  0
  5  8  1  0
  8  9  1  0
  9  5  1  0
  2 10  1  0
  3 11  1  0
  3 12  1  0
  4 13  1  0
  4 14  1  0
  6 15  1  0
  6 16  1  0
  7 17  1  0
  8 18  1  0
  8 19  1  0
M  END
