
     RDKit          3D

 19 20  0  0  0  0  0  0  0  0999 V2000
    0.2791    2.7170   -0.4303 O   0  0  0  0  0  0  0  0  0  0  0  0
   -0.5268    1.9375    0.0381 C   0  0  0  0  0  0  0  0  0  0  0  0
   -0.6301    0.5885   -0.5224 C   0  0  0  0  0  0  0  0  0  0  0  0
   -1.7397   -0.2319    0.1180 C   0  0  0  0  0  0  0  0  0  0  0  0
   -1.2599   -1.6177   -0.1629 C   0  0  0  0  0  0  0  0  0  0  0  0
    0.0428   -1.6338   -0.3820 C   0  0  0  0  0  0  0  0  0  0  0  0
    0.5494   -0.2788   -0.2698 C   0  0  0  0  0  0  0  0  0  0  0  0
    1.9348    0.1355   -0.4140 C   0  0  0  0  0  0  0  0  0  0  0  0
    1.3626   -0.0058    1.0021 C   0  0  0  0  0  0  0  0  0  0  0  0
   -1.1404    2.2780    0.8586 H   0  0  0  0  0  0  0  0  0  0  0  0
   -0.8476    0.6121   -1.6224 H   0  0  0  0  0  0  0  0  0  0  0  0
   -2.7160   -0.0236   -0.3479 H   0  0  0  0  0  0  0  0  0  0  0  0
   -1.7471   -0.0963    1.2265 H   0  0  0  0  0  0  0  0  0  0  0  0
   -1.9005   -2.4999   -0.1842 H   0  0  0  0  0  0  0  0  0  0  0  0
    0.6847   -2.5034   -0.6151 H   0  0  0  0  0  0  0  0  0  0  0  0
    2.6910   -0.5985   -0.7143 H   0  0  0  0  0  0  0  0  0  0  0  0
    2.1115    1.2016   -0.7084 H   0  0  0  0  0  0  0  0  0  0  0  0
    1.7271   -0.9002    1.5708 H   0  0  0  0  0  0  0  0  0  0  0  0
    1.1254    0.9196    1.5596 H   0  0  0  0  0  0  0  0  0  0  0  0
  1  2  2  0
  2  3  1  0
  3  4  1  0
  4  5  1  0
  5  6  2  0
  6  7  1  0
  7  8  1  0
  8  9  1  0
  7  3  1  0
  9  7  1  0
  2 10  1  0
  3 11  1  0
  4 12  1  0
  4 13  1  0
  5 14  1  0
  6 15  1  0
  8 16  1  0
  8 17  1  0
  9 18  1  0
  9 19  1  0
M  END
