
     RDKit          3D

 19 20  0  0  0  0  0  0  0  0999 V2000
   -1.5497    1.8989    1.0154 O   0  0  0  0  0  0  0  0  0  0  0  0
   -1.9725    1.2163    0.1017 C   0  0  0  0  0  0  0  0  0  0  0  0
   -1.3123   -0.0391   -0.3021 C   0  0  0  0  0  0  0  0  0  0  0  0
   -0.1049    0.3243   -1.1948 C   0  0  0  0  0  0  0  0  0  0  0  0
    0.8349   -0.6971   -0.6919 C   0  0  0  0  0  0  0  0  0  0  0  0
    1.8915   -0.6821    0.2339 C   0  0  0  0  0  0  0  0  0  0  0  0
    2.9356    0.2349   -0.0467 O   0  0  0  0  0  0  0  0  0  0  0  0
    0.7021   -0.2388    0.8199 C   0  0  0  0  0  0  0  0  0  0  0  0
   -0.6878   -0.7443    0.9222 C   0  0  0  0  0  0  0  0  0  0  0  0
   -2.8556    1.5285   -0.4362 H   0  0  0  0  0  0  0  0  0  0  0  0
   -2.0054   -0.7060   -0.8179 H   0  0  0  0  0  0  0  0  0  0  0  0
    0.2694    1.3378   -0.9331 H   0  0  0  0  0  0  0  0  0  0  0  0
   -0.3469    0.2016   -2.2588 H   0  0  0  0  0  0  0  0  0  0  0  0
    0.4070   -1.7232   -0.9183 H   0  0  0  0  0  0  0  0  0  0  0  0
    2.3553   -1.6531    0.5540 H   0  0  0  0  0  0  0  0  0  0  0  0
    2.7508    1.0843    0.3918 H   0  0  0  0  0  0  0  0  0  0  0  0
    0.6532    0.8869    0.9806 H   0  0  0  0  0  0  0  0  0  0  0  0
   -1.1711   -0.3847    1.8522 H   0  0  0  0  0  0  0  0  0  0  0  0
   -0.7937   -1.8451    0.8323 H   0  0  0  0  0  0  0  0  0  0  0  0
  1  2  2  0
  2  3  1  0
  3  4  1  0
  4  5  1  0
  5  6  1  0
  6  7  1  0
  6  8  1  0
  8  9  1  0
  9  3  1  0
  8  5  1  0
  2 10  1  0
  3 11  1  0
  4 12  1  0
  4 13  1  0
  5 14  1  0
  6 15  1  0
  7 16  1  0
  8 17  1  0
  9 18  1  0
  9 19  1  0
M  END
