
     RDKit          3D

 12 11  0  0  0  0  0  0  0  0999 V2000
   -2.5600    1.3360   -0.3710 O   0  0  0  0  0  0  0  0  0  0  0  0
   -2.4239    0.1568    0.0352 C   0  0  0  0  0  0  0  0  0  0  0  0
   -1.0898   -0.3676    0.1952 C   0  0  0  0  0  0  0  0  0  0  0  0
   -0.9532   -1.5624    0.6067 O   0  0  0  0  0  0  0  0  0  0  0  0
    0.0996    0.4201   -0.0969 C   0  0  0  0  0  0  0  0  0  0  0  0
   -0.0062    1.6005   -0.5038 O   0  0  0  0  0  0  0  0  0  0  0  0
    1.4180   -0.1986    0.0960 C   0  0  0  0  0  0  0  0  0  0  0  0
    2.4716    0.6235   -0.2059 O   0  0  0  0  0  0  0  0  0  0  0  0
   -3.2738   -0.4368    0.2545 H   0  0  0  0  0  0  0  0  0  0  0  0
    1.5048   -1.1087   -0.5606 H   0  0  0  0  0  0  0  0  0  0  0  0
    1.5408   -0.5096    1.1720 H   0  0  0  0  0  0  0  0  0  0  0  0
    3.2720    0.0468   -0.3815 H   0  0  0  0  0  0  0  0  0  0  0  0
  1  2  2  0
  2  3  1  0
  3  4  2  0
  3  5  1  0
  5  6  2  0
  5  7  1  0
  7  8  1  0
  2  9  1  0
  7 10  1  0
  7 11  1  0
  8 12  1  0
M  END
