
     RDKit          3D

 14 14  0  0  0  0  0  0  0  0999 V2000
   -2.7290    0.2664    0.3113 O   0  0  0  0  0  0  0  0  0  0  0  0
   -1.7340   -0.3935    0.1935 C   0  0  0  0  0  0  0  0  0  0  0  0
   -0.4264    0.2749    0.0933 C   0  0  0  0  0  0  0  0  0  0  0  0
   -0.4336    1.6484    0.1429 O   0  0  0  0  0  0  0  0  0  0  0  0
    0.6523   -0.2768    1.0259 C   0  0  0  0  0  0  0  0  0  0  0  0
    1.6046   -0.0486   -0.0857 C   0  0  0  0  0  0  0  0  0  0  0  0
    2.7787    0.2035   -0.1884 O   0  0  0  0  0  0  0  0  0  0  0  0
    0.4756   -0.2672   -1.0189 C   0  0  0  0  0  0  0  0  0  0  0  0
   -1.7968   -1.4696    0.1611 H   0  0  0  0  0  0  0  0  0  0  0  0
   -0.5092    2.0937   -0.7299 H   0  0  0  0  0  0  0  0  0  0  0  0
    0.8177    0.3420    1.9300 H   0  0  0  0  0  0  0  0  0  0  0  0
    0.5113   -1.3473    1.2509 H   0  0  0  0  0  0  0  0  0  0  0  0
    0.4749    0.3360   -1.9371 H   0  0  0  0  0  0  0  0  0  0  0  0
    0.3139   -1.3618   -1.1489 H   0  0  0  0  0  0  0  0  0  0  0  0
  1  2  2  0
  2  3  1  0
  3  4  1  0
  3  5  1  0
  5  6  1  0
  6  7  2  0
  6  8  1  0
  8  3  1  0
  2  9  1  0
  4 10  1  0
  5 11  1  0
  5 12  1  0
  8 13  1  0
  8 14  1  0
M  END
