
     RDKit          3D

 17 19  0  0  0  0  0  0  0  0999 V2000
    2.7082   -1.1945    1.1899 O   0  0  0  0  0  0  0  0  0  0  0  0
    2.6420   -0.5191    0.1858 C   0  0  0  0  0  0  0  0  0  0  0  0
    1.3916    0.1646   -0.1397 C   0  0  0  0  0  0  0  0  0  0  0  0
    0.3475    0.3812    0.9673 C   0  0  0  0  0  0  0  0  0  0  0  0
   -0.6797    0.0818   -0.0695 C   0  0  0  0  0  0  0  0  0  0  0  0
   -1.8851   -0.6701    0.1137 C   0  0  0  0  0  0  0  0  0  0  0  0
   -1.8865    0.8366   -0.3014 C   0  0  0  0  0  0  0  0  0  0  0  0
    0.3978   -0.1751   -1.0543 C   0  0  0  0  0  0  0  0  0  0  0  0
    1.2649    0.9415   -1.2655 O   0  0  0  0  0  0  0  0  0  0  0  0
    3.4910   -0.4254   -0.4546 H   0  0  0  0  0  0  0  0  0  0  0  0
    0.3518    1.4352    1.3429 H   0  0  0  0  0  0  0  0  0  0  0  0
    0.5064   -0.3549    1.7591 H   0  0  0  0  0  0  0  0  0  0  0  0
   -2.2507   -1.3442   -0.6804 H   0  0  0  0  0  0  0  0  0  0  0  0
   -2.2931   -0.8262    1.1520 H   0  0  0  0  0  0  0  0  0  0  0  0
   -2.1800    1.0505   -1.3456 H   0  0  0  0  0  0  0  0  0  0  0  0
   -2.2628    1.5519    0.4270 H   0  0  0  0  0  0  0  0  0  0  0  0
    0.3367   -0.9337   -1.8268 H   0  0  0  0  0  0  0  0  0  0  0  0
  1  2  2  0
  2  3  1  0
  3  4  1  0
  4  5  1  0
  5  6  1  0
  6  7  1  0
  5  8  1  0
  8  9  1  0
  8  3  1  0
  9  3  1  0
  7  5  1  0
  2 10  1  0
  4 11  1  0
  4 12  1  0
  6 13  1  0
  6 14  1  0
  7 15  1  0
  7 16  1  0
  8 17  1  0
M  END
