
     RDKit          3D

 12 13  0  0  0  0  0  0  0  0999 V2000
    2.0436    1.3487    0.9370 O   0  0  0  0  0  0  0  0  0  0  0  0
    1.8613    0.4596    0.1273 C   0  0  0  0  0  0  0  0  0  0  0  0
    0.5124    0.0112   -0.1564 C   0  0  0  0  0  0  0  0  0  0  0  0
    0.3988   -1.0613   -1.1438 O   0  0  0  0  0  0  0  0  0  0  0  0
   -0.2317   -1.0607    0.1501 C   0  0  0  0  0  0  0  0  0  0  0  0
   -1.5224   -0.2387    0.0900 C   0  0  0  0  0  0  0  0  0  0  0  0
   -0.6352    0.9469   -0.2025 C   0  0  0  0  0  0  0  0  0  0  0  0
   -0.7662    2.1336   -0.3933 O   0  0  0  0  0  0  0  0  0  0  0  0
    2.7068    0.0082   -0.3769 H   0  0  0  0  0  0  0  0  0  0  0  0
   -0.1874   -1.9622    0.7340 H   0  0  0  0  0  0  0  0  0  0  0  0
   -2.1424   -0.4664   -0.8049 H   0  0  0  0  0  0  0  0  0  0  0  0
   -2.0375   -0.1189    1.0394 H   0  0  0  0  0  0  0  0  0  0  0  0
  1  2  2  0
  2  3  1  0
  3  4  1  0
  4  5  1  0
  5  6  1  0
  6  7  1  0
  7  8  2  0
  5  3  1  0
  7  3  1  0
  2  9  1  0
  5 10  1  0
  6 11  1  0
  6 12  1  0
M  END
