
     RDKit          3D

 19 19  0  0  0  0  0  0  0  0999 V2000
   -2.0327   -1.2787    2.2126 O   0  0  0  0  0  0  0  0  0  0  0  0
   -1.9344   -0.9500    1.0437 C   0  0  0  0  0  0  0  0  0  0  0  0
   -0.6645   -1.1035    0.2895 C   0  0  0  0  0  0  0  0  0  0  0  0
    0.0589    0.1951    0.0704 C   0  0  0  0  0  0  0  0  0  0  0  0
    1.3528    0.0535   -0.6782 C   0  0  0  0  0  0  0  0  0  0  0  0
    2.3506   -0.7781    0.0011 C   0  0  0  0  0  0  0  0  0  0  0  0
    2.1455   -1.2211    1.0972 O   0  0  0  0  0  0  0  0  0  0  0  0
   -0.8761    1.2926   -0.4740 C   0  0  0  0  0  0  0  0  0  0  0  0
   -0.1893    1.4169    0.8515 C   0  0  0  0  0  0  0  0  0  0  0  0
   -2.8095   -0.5344    0.5507 H   0  0  0  0  0  0  0  0  0  0  0  0
   -0.9674   -1.4560   -0.7445 H   0  0  0  0  0  0  0  0  0  0  0  0
   -0.0276   -1.8576    0.7779 H   0  0  0  0  0  0  0  0  0  0  0  0
    1.1488   -0.3375   -1.7239 H   0  0  0  0  0  0  0  0  0  0  0  0
    1.8374    1.0663   -0.8105 H   0  0  0  0  0  0  0  0  0  0  0  0
    3.2816   -0.9855   -0.5065 H   0  0  0  0  0  0  0  0  0  0  0  0
   -0.5102    1.8261   -1.3686 H   0  0  0  0  0  0  0  0  0  0  0  0
   -1.9815    1.1015   -0.4060 H   0  0  0  0  0  0  0  0  0  0  0  0
    0.6212    2.1818    0.8706 H   0  0  0  0  0  0  0  0  0  0  0  0
   -0.8034    1.3687    1.7673 H   0  0  0  0  0  0  0  0  0  0  0  0
  1  2  2  0
  2  3  1  0
  3  4  1  0
  4  5  1  0
  5  6  1  0
  6  7  2  0
  4  8  1  0
  8  9  1  0
  9  4  1  0
  2 10  1  0
  3 11  1  0
  3 12  1  0
  5 13  1  0
  5 14  1  0
  6 15  1  0
  8 16  1  0
  8 17  1  0
  9 18  1  0
  9 19  1  0
M  END
