
     RDKit          3D

 16 17  0  0  0  0  0  0  0  0999 V2000
    1.9793   -1.9749    0.7662 O   0  0  0  0  0  0  0  0  0  0  0  0
    1.8804   -0.7773    0.5755 C   0  0  0  0  0  0  0  0  0  0  0  0
    0.8699   -0.2774   -0.3588 C   0  0  0  0  0  0  0  0  0  0  0  0
    0.5183    1.1784   -0.2196 C   0  0  0  0  0  0  0  0  0  0  0  0
   -0.9385    0.8875   -0.1801 C   0  0  0  0  0  0  0  0  0  0  0  0
   -1.5743   -0.1885   -0.9627 C   0  0  0  0  0  0  0  0  0  0  0  0
   -0.5674   -0.5861    0.0308 C   0  0  0  0  0  0  0  0  0  0  0  0
   -0.8533   -1.1686    1.2292 O   0  0  0  0  0  0  0  0  0  0  0  0
    2.5290   -0.0794    1.0874 H   0  0  0  0  0  0  0  0  0  0  0  0
    1.0156   -0.5678   -1.4389 H   0  0  0  0  0  0  0  0  0  0  0  0
    0.8840    1.8483   -1.0214 H   0  0  0  0  0  0  0  0  0  0  0  0
    0.8654    1.5702    0.7715 H   0  0  0  0  0  0  0  0  0  0  0  0
   -1.5416    1.3891    0.5991 H   0  0  0  0  0  0  0  0  0  0  0  0
   -1.2793   -0.3577   -2.0328 H   0  0  0  0  0  0  0  0  0  0  0  0
   -2.6193   -0.4192   -0.7310 H   0  0  0  0  0  0  0  0  0  0  0  0
   -1.1680   -0.4767    1.8854 H   0  0  0  0  0  0  0  0  0  0  0  0
  1  2  2  0
  2  3  1  0
  3  4  1  0
  4  5  1  0
  5  6  1  0
  6  7  1  0
  7  8  1  0
  7  3  1  0
  7  5  1  0
  2  9  1  0
  3 10  1  0
  4 11  1  0
  4 12  1  0
  5 13  1  0
  6 14  1  0
  6 15  1  0
  8 16  1  0
M  END
