
     RDKit          3D

 17 18  0  0  0  0  0  0  0  0999 V2000
    3.0759   -0.4059    0.2106 O   0  0  0  0  0  0  0  0  0  0  0  0
    1.9641    0.0027    0.5275 C   0  0  0  0  0  0  0  0  0  0  0  0
    0.7855   -0.6104   -0.0818 C   0  0  0  0  0  0  0  0  0  0  0  0
    0.0856    0.3466   -1.0718 C   0  0  0  0  0  0  0  0  0  0  0  0
   -0.2490    1.4437   -0.1430 C   0  0  0  0  0  0  0  0  0  0  0  0
   -0.5539    0.8857    1.0246 C   0  0  0  0  0  0  0  0  0  0  0  0
   -0.4338   -0.5876    0.8669 C   0  0  0  0  0  0  0  0  0  0  0  0
   -1.4743   -0.9895   -0.0961 C   0  0  0  0  0  0  0  0  0  0  0  0
   -1.1681   -0.4446   -1.2691 C   0  0  0  0  0  0  0  0  0  0  0  0
    1.8399    0.7993    1.2414 H   0  0  0  0  0  0  0  0  0  0  0  0
    0.9314   -1.5955   -0.5230 H   0  0  0  0  0  0  0  0  0  0  0  0
    0.6476    0.5735   -1.9380 H   0  0  0  0  0  0  0  0  0  0  0  0
   -0.2605    2.5094   -0.3228 H   0  0  0  0  0  0  0  0  0  0  0  0
   -0.8402    1.3805    1.9397 H   0  0  0  0  0  0  0  0  0  0  0  0
   -0.3142   -1.1614    1.7467 H   0  0  0  0  0  0  0  0  0  0  0  0
   -2.3336   -1.6096    0.0919 H   0  0  0  0  0  0  0  0  0  0  0  0
   -1.7024   -0.5368   -2.2037 H   0  0  0  0  0  0  0  0  0  0  0  0
  1  2  2  0
  2  3  1  0
  3  4  1  0
  4  5  1  0
  5  6  2  0
  6  7  1  0
  7  8  1  0
  8  9  2  0
  7  3  1  0
  9  4  1  0
  2 10  1  0
  3 11  1  0
  4 12  1  0
  5 13  1  0
  6 14  1  0
  7 15  1  0
  8 16  1  0
  9 17  1  0
M  END
