
     RDKit          3D

 17 18  0  0  0  0  0  0  0  0999 V2000
   -1.5064    2.0651   -1.1246 O   0  0  0  0  0  0  0  0  0  0  0  0
   -1.0767    1.6813   -0.0412 C   0  0  0  0  0  0  0  0  0  0  0  0
   -0.7322    0.3944    0.2146 C   0  0  0  0  0  0  0  0  0  0  0  0
   -1.6485   -0.8046    0.1165 C   0  0  0  0  0  0  0  0  0  0  0  0
   -0.2999   -1.2751    0.5633 C   0  0  0  0  0  0  0  0  0  0  0  0
   -0.2469   -0.1516    1.3676 O   0  0  0  0  0  0  0  0  0  0  0  0
    0.2663   -0.4320   -0.5323 C   0  0  0  0  0  0  0  0  0  0  0  0
    1.6990   -0.0229   -0.4070 C   0  0  0  0  0  0  0  0  0  0  0  0
    2.0664   -0.0842    0.9251 O   0  0  0  0  0  0  0  0  0  0  0  0
   -0.9963    2.4831    0.7084 H   0  0  0  0  0  0  0  0  0  0  0  0
   -2.4632   -0.8471    0.8312 H   0  0  0  0  0  0  0  0  0  0  0  0
   -1.8405   -1.0993   -0.9231 H   0  0  0  0  0  0  0  0  0  0  0  0
   -0.0348   -2.2181    0.8106 H   0  0  0  0  0  0  0  0  0  0  0  0
   -0.0731   -0.7388   -1.5417 H   0  0  0  0  0  0  0  0  0  0  0  0
    1.7579    1.0568   -0.7099 H   0  0  0  0  0  0  0  0  0  0  0  0
    2.3283   -0.5890   -1.0872 H   0  0  0  0  0  0  0  0  0  0  0  0
    2.8006    0.5822    1.0752 H   0  0  0  0  0  0  0  0  0  0  0  0
  1  2  2  0
  2  3  1  0
  3  4  1  0
  4  5  1  0
  5  6  1  0
  5  7  1  0
  7  8  1  0
  8  9  1  0
  6  3  1  0
  7  3  1  0
  2 10  1  0
  4 11  1  0
  4 12  1  0
  5 13  1  0
  7 14  1  0
  8 15  1  0
  8 16  1  0
  9 17  1  0
M  END
