
     RDKit          3D

 17 17  0  0  0  0  0  0  0  0999 V2000
    2.4192   -0.6971    1.4637 O   0  0  0  0  0  0  0  0  0  0  0  0
    2.1981    0.2157    0.6577 C   0  0  0  0  0  0  0  0  0  0  0  0
    1.2666   -0.0077   -0.4841 C   0  0  0  0  0  0  0  0  0  0  0  0
    0.2398    1.0489   -0.5382 C   0  0  0  0  0  0  0  0  0  0  0  0
   -0.9552    1.0503    0.0149 C   0  0  0  0  0  0  0  0  0  0  0  0
   -1.6639    0.0485    0.8459 C   0  0  0  0  0  0  0  0  0  0  0  0
   -1.2099   -1.2437    0.6471 O   0  0  0  0  0  0  0  0  0  0  0  0
   -0.5700   -1.4175   -0.5633 C   0  0  0  0  0  0  0  0  0  0  0  0
    0.7812   -1.2819   -0.4376 O   0  0  0  0  0  0  0  0  0  0  0  0
    2.7116    1.1556    0.8346 H   0  0  0  0  0  0  0  0  0  0  0  0
    1.8686    0.0857   -1.4325 H   0  0  0  0  0  0  0  0  0  0  0  0
    0.5024    1.9497   -1.1119 H   0  0  0  0  0  0  0  0  0  0  0  0
   -1.5360    1.9425   -0.1634 H   0  0  0  0  0  0  0  0  0  0  0  0
   -2.7303    0.0751    0.5801 H   0  0  0  0  0  0  0  0  0  0  0  0
   -1.5028    0.3421    1.9207 H   0  0  0  0  0  0  0  0  0  0  0  0
   -1.0322   -0.7868   -1.3517 H   0  0  0  0  0  0  0  0  0  0  0  0
   -0.7872   -2.4794   -0.8820 H   0  0  0  0  0  0  0  0  0  0  0  0
  1  2  2  0
  2  3  1  0
  3  4  1  0
  4  5  2  0
  5  6  1  0
  6  7  1  0
  7  8  1  0
  8  9  1  0
  9  3  1  0
  2 10  1  0
  3 11  1  0
  4 12  1  0
  5 13  1  0
  6 14  1  0
  6 15  1  0
  8 16  1  0
  8 17  1  0
M  END
