
     RDKit          3D

 17 18  0  0  0  0  0  0  0  0999 V2000
    3.0918    0.3827    0.7008 O   0  0  0  0  0  0  0  0  0  0  0  0
    2.5909   -0.0825   -0.3108 C   0  0  0  0  0  0  0  0  0  0  0  0
    1.1435   -0.1834   -0.5174 C   0  0  0  0  0  0  0  0  0  0  0  0
    0.2943   -0.4199    0.6789 C   0  0  0  0  0  0  0  0  0  0  0  0
   -1.0993   -0.9867    0.5415 C   0  0  0  0  0  0  0  0  0  0  0  0
   -1.9553    0.0915   -0.0769 C   0  0  0  0  0  0  0  0  0  0  0  0
   -1.0108    1.1093   -0.6271 C   0  0  0  0  0  0  0  0  0  0  0  0
   -1.2907    1.9397   -1.4599 O   0  0  0  0  0  0  0  0  0  0  0  0
    0.2940    0.8999    0.0340 C   0  0  0  0  0  0  0  0  0  0  0  0
    3.2755   -0.4273   -1.0709 H   0  0  0  0  0  0  0  0  0  0  0  0
    0.8262   -0.6273   -1.4842 H   0  0  0  0  0  0  0  0  0  0  0  0
    0.8315   -0.6054    1.6315 H   0  0  0  0  0  0  0  0  0  0  0  0
   -1.1182   -1.9159   -0.0790 H   0  0  0  0  0  0  0  0  0  0  0  0
   -1.4552   -1.2304    1.5672 H   0  0  0  0  0  0  0  0  0  0  0  0
   -2.5484    0.6279    0.7099 H   0  0  0  0  0  0  0  0  0  0  0  0
   -2.6109   -0.3029   -0.8811 H   0  0  0  0  0  0  0  0  0  0  0  0
    0.7410    1.7305    0.6435 H   0  0  0  0  0  0  0  0  0  0  0  0
  1  2  2  0
  2  3  1  0
  3  4  1  0
  4  5  1  0
  5  6  1  0
  6  7  1  0
  7  8  2  0
  7  9  1  0
  9  3  1  0
  9  4  1  0
  2 10  1  0
  3 11  1  0
  4 12  1  0
  5 13  1  0
  5 14  1  0
  6 15  1  0
  6 16  1  0
  9 17  1  0
M  END
