
     RDKit          3D

 15 15  0  0  0  0  0  0  0  0999 V2000
   -1.8831    1.6875    1.0369 O   0  0  0  0  0  0  0  0  0  0  0  0
   -1.4897    1.2433   -0.0212 C   0  0  0  0  0  0  0  0  0  0  0  0
   -0.5702    0.0621   -0.0426 C   0  0  0  0  0  0  0  0  0  0  0  0
   -1.2908   -1.0423    0.6147 C   0  0  0  0  0  0  0  0  0  0  0  0
   -1.5007   -2.0704    0.0062 O   0  0  0  0  0  0  0  0  0  0  0  0
   -0.2362   -0.2926   -1.3281 O   0  0  0  0  0  0  0  0  0  0  0  0
    1.1017   -0.6127   -1.3123 C   0  0  0  0  0  0  0  0  0  0  0  0
    1.6254    0.4433   -0.3297 C   0  0  0  0  0  0  0  0  0  0  0  0
    0.6082    0.4023    0.6239 O   0  0  0  0  0  0  0  0  0  0  0  0
   -1.7683    1.6575   -0.9813 H   0  0  0  0  0  0  0  0  0  0  0  0
   -1.6212   -0.9112    1.6379 H   0  0  0  0  0  0  0  0  0  0  0  0
    1.6047   -0.5811   -2.2711 H   0  0  0  0  0  0  0  0  0  0  0  0
    1.2172   -1.5888   -0.7687 H   0  0  0  0  0  0  0  0  0  0  0  0
    2.5998    0.1493    0.0876 H   0  0  0  0  0  0  0  0  0  0  0  0
    1.6032    1.4539   -0.7703 H   0  0  0  0  0  0  0  0  0  0  0  0
  1  2  2  0
  2  3  1  0
  3  4  1  0
  4  5  2  0
  3  6  1  0
  6  7  1  0
  7  8  1  0
  8  9  1  0
  9  3  1  0
  2 10  1  0
  4 11  1  0
  7 12  1  0
  7 13  1  0
  8 14  1  0
  8 15  1  0
M  END
