
     RDKit          3D

 17 18  0  0  0  0  0  0  0  0999 V2000
    2.6433    1.2638   -0.3928 O   0  0  0  0  0  0  0  0  0  0  0  0
    2.0257    0.3698    0.1540 C   0  0  0  0  0  0  0  0  0  0  0  0
    0.6613    0.0785   -0.3118 C   0  0  0  0  0  0  0  0  0  0  0  0
    0.3944   -1.4154   -0.4286 C   0  0  0  0  0  0  0  0  0  0  0  0
   -0.3544   -1.7481    0.7115 O   0  0  0  0  0  0  0  0  0  0  0  0
   -1.3147   -0.7194    0.6909 C   0  0  0  0  0  0  0  0  0  0  0  0
   -0.4479    0.5133    0.6086 C   0  0  0  0  0  0  0  0  0  0  0  0
   -0.8105    1.4161   -0.5334 C   0  0  0  0  0  0  0  0  0  0  0  0
    0.1778    0.8451   -1.3416 O   0  0  0  0  0  0  0  0  0  0  0  0
    2.4468   -0.1994    0.9529 H   0  0  0  0  0  0  0  0  0  0  0  0
   -0.3075   -1.5418   -1.2910 H   0  0  0  0  0  0  0  0  0  0  0  0
    1.3038   -2.0075   -0.5204 H   0  0  0  0  0  0  0  0  0  0  0  0
   -1.9580   -0.7239    1.5685 H   0  0  0  0  0  0  0  0  0  0  0  0
   -1.8613   -0.8440   -0.2742 H   0  0  0  0  0  0  0  0  0  0  0  0
   -0.1528    0.9743    1.5472 H   0  0  0  0  0  0  0  0  0  0  0  0
   -0.6102    2.4831   -0.2572 H   0  0  0  0  0  0  0  0  0  0  0  0
   -1.8359    1.2555   -0.8824 H   0  0  0  0  0  0  0  0  0  0  0  0
  1  2  2  0
  2  3  1  0
  3  4  1  0
  4  5  1  0
  5  6  1  0
  6  7  1  0
  7  8  1  0
  8  9  1  0
  7  3  1  0
  9  3  1  0
  2 10  1  0
  4 11  1  0
  4 12  1  0
  6 13  1  0
  6 14  1  0
  7 15  1  0
  8 16  1  0
  8 17  1  0
M  END
