
     RDKit          3D

 15 17  0  0  0  0  0  0  0  0999 V2000
    3.0916    0.1849   -0.3549 O   0  0  0  0  0  0  0  0  0  0  0  0
    2.0101    0.4241    0.1527 C   0  0  0  0  0  0  0  0  0  0  0  0
    0.7660   -0.2404   -0.2118 C   0  0  0  0  0  0  0  0  0  0  0  0
    0.7457   -1.2247   -1.1971 O   0  0  0  0  0  0  0  0  0  0  0  0
    0.2897   -1.5104    0.0786 C   0  0  0  0  0  0  0  0  0  0  0  0
   -1.0476   -0.9387    0.5293 C   0  0  0  0  0  0  0  0  0  0  0  0
   -0.5672    0.3881    0.0370 C   0  0  0  0  0  0  0  0  0  0  0  0
   -1.2193    1.3667   -0.6615 C   0  0  0  0  0  0  0  0  0  0  0  0
   -0.7245    1.5431    0.7372 O   0  0  0  0  0  0  0  0  0  0  0  0
    1.9967    1.1851    0.9240 H   0  0  0  0  0  0  0  0  0  0  0  0
    0.7202   -2.3742    0.5795 H   0  0  0  0  0  0  0  0  0  0  0  0
   -1.1189   -0.9922    1.6427 H   0  0  0  0  0  0  0  0  0  0  0  0
   -1.9257   -1.3727   -0.0065 H   0  0  0  0  0  0  0  0  0  0  0  0
   -0.7060    2.0569   -1.3712 H   0  0  0  0  0  0  0  0  0  0  0  0
   -2.3108    1.5044   -0.6436 H   0  0  0  0  0  0  0  0  0  0  0  0
  1  2  2  0
  2  3  1  0
  3  4  1  0
  4  5  1  0
  5  6  1  0
  6  7  1  0
  7  8  1  0
  8  9  1  0
  5  3  1  0
  9  7  1  0
  7  3  1  0
  2 10  1  0
  5 11  1  0
  6 12  1  0
  6 13  1  0
  8 14  1  0
  8 15  1  0
M  END
