
     RDKit          3D

 19 21  0  0  0  0  0  0  0  0999 V2000
    2.7067   -1.4718   -0.2633 O   0  0  0  0  0  0  0  0  0  0  0  0
    1.6818   -1.0062   -0.7520 C   0  0  0  0  0  0  0  0  0  0  0  0
    0.7883   -0.2422    0.1218 C   0  0  0  0  0  0  0  0  0  0  0  0
    1.4302    1.0509    0.7075 C   0  0  0  0  0  0  0  0  0  0  0  0
    0.4370    1.2216   -0.3287 C   0  0  0  0  0  0  0  0  0  0  0  0
   -1.0753    1.2083   -0.0583 C   0  0  0  0  0  0  0  0  0  0  0  0
   -1.3572   -0.1959   -0.4660 C   0  0  0  0  0  0  0  0  0  0  0  0
   -1.6047   -1.4012    0.2027 C   0  0  0  0  0  0  0  0  0  0  0  0
   -0.4446   -0.7661    0.6990 C   0  0  0  0  0  0  0  0  0  0  0  0
    1.5288   -1.2065   -1.8043 H   0  0  0  0  0  0  0  0  0  0  0  0
    1.1679    1.2097    1.7722 H   0  0  0  0  0  0  0  0  0  0  0  0
    2.4652    1.2598    0.4670 H   0  0  0  0  0  0  0  0  0  0  0  0
    0.6763    1.4764   -1.3648 H   0  0  0  0  0  0  0  0  0  0  0  0
   -1.5936    1.9776   -0.6607 H   0  0  0  0  0  0  0  0  0  0  0  0
   -1.2424    1.3835    1.0297 H   0  0  0  0  0  0  0  0  0  0  0  0
   -0.9351   -0.3344   -1.5123 H   0  0  0  0  0  0  0  0  0  0  0  0
   -1.4558   -2.3920   -0.3146 H   0  0  0  0  0  0  0  0  0  0  0  0
   -2.5493   -1.4754    0.8056 H   0  0  0  0  0  0  0  0  0  0  0  0
   -0.6242   -0.2962    1.7195 H   0  0  0  0  0  0  0  0  0  0  0  0
  1  2  2  0
  2  3  1  0
  3  4  1  0
  4  5  1  0
  5  6  1  0
  6  7  1  0
  7  8  1  0
  8  9  1  0
  5  3  1  0
  9  7  1  0
  9  3  1  0
  2 10  1  0
  4 11  1  0
  4 12  1  0
  5 13  1  0
  6 14  1  0
  6 15  1  0
  7 16  1  0
  8 17  1  0
  8 18  1  0
  9 19  1  0
M  END
