
     RDKit          3D

 18 18  0  0  0  0  0  0  0  0999 V2000
    2.3689   -0.4736   -1.4353 O   0  0  0  0  0  0  0  0  0  0  0  0
    2.0725   -0.6184   -0.2654 C   0  0  0  0  0  0  0  0  0  0  0  0
    0.7328   -0.3479    0.2784 C   0  0  0  0  0  0  0  0  0  0  0  0
   -0.3296   -1.2566   -0.2857 C   0  0  0  0  0  0  0  0  0  0  0  0
   -1.5897   -0.4571   -0.0401 C   0  0  0  0  0  0  0  0  0  0  0  0
   -1.2108    0.9964   -0.2265 C   0  0  0  0  0  0  0  0  0  0  0  0
    0.2857    1.0426   -0.0793 C   0  0  0  0  0  0  0  0  0  0  0  0
    0.7076    1.8973    0.9221 O   0  0  0  0  0  0  0  0  0  0  0  0
    2.8622   -0.9686    0.3922 H   0  0  0  0  0  0  0  0  0  0  0  0
    0.7251   -0.4441    1.3597 H   0  0  0  0  0  0  0  0  0  0  0  0
   -0.1752   -1.5273   -1.3332 H   0  0  0  0  0  0  0  0  0  0  0  0
   -0.3540   -2.1728    0.3692 H   0  0  0  0  0  0  0  0  0  0  0  0
   -1.8564   -0.5868    1.0430 H   0  0  0  0  0  0  0  0  0  0  0  0
   -2.4212   -0.7450   -0.7064 H   0  0  0  0  0  0  0  0  0  0  0  0
   -1.7332    1.6290    0.5247 H   0  0  0  0  0  0  0  0  0  0  0  0
   -1.5269    1.3660   -1.2377 H   0  0  0  0  0  0  0  0  0  0  0  0
    0.7383    1.2908   -1.0599 H   0  0  0  0  0  0  0  0  0  0  0  0
    0.7040    1.3761    1.7803 H   0  0  0  0  0  0  0  0  0  0  0  0
  1  2  2  0
  2  3  1  0
  3  4  1  0
  4  5  1  0
  5  6  1  0
  6  7  1  0
  7  8  1  0
  7  3  1  0
  2  9  1  0
  3 10  1  0
  4 11  1  0
  4 12  1  0
  5 13  1  0
  5 14  1  0
  6 15  1  0
  6 16  1  0
  7 17  1  0
  8 18  1  0
M  END
