
     RDKit          3D

 19 20  0  0  0  0  0  0  0  0999 V2000
    3.1453    0.0396   -0.4920 O   0  0  0  0  0  0  0  0  0  0  0  0
    2.3818   -0.5218    0.2717 C   0  0  0  0  0  0  0  0  0  0  0  0
    1.0549    0.0292    0.6387 C   0  0  0  0  0  0  0  0  0  0  0  0
    0.8880    1.4396    0.2345 C   0  0  0  0  0  0  0  0  0  0  0  0
   -0.0707    1.5571   -0.6699 C   0  0  0  0  0  0  0  0  0  0  0  0
   -0.6753    0.2392   -0.9932 C   0  0  0  0  0  0  0  0  0  0  0  0
   -1.9700   -0.0717   -0.2957 C   0  0  0  0  0  0  0  0  0  0  0  0
   -1.2495   -0.9809    0.6741 C   0  0  0  0  0  0  0  0  0  0  0  0
    0.0162   -0.7567   -0.1257 C   0  0  0  0  0  0  0  0  0  0  0  0
    2.6668   -1.4703    0.7152 H   0  0  0  0  0  0  0  0  0  0  0  0
    0.9330   -0.1160    1.7458 H   0  0  0  0  0  0  0  0  0  0  0  0
    1.4661    2.2579    0.6220 H   0  0  0  0  0  0  0  0  0  0  0  0
   -0.4246    2.4783   -1.1597 H   0  0  0  0  0  0  0  0  0  0  0  0
   -0.6692    0.0232   -2.0840 H   0  0  0  0  0  0  0  0  0  0  0  0
   -2.4706    0.8075    0.1641 H   0  0  0  0  0  0  0  0  0  0  0  0
   -2.6337   -0.6678   -0.9790 H   0  0  0  0  0  0  0  0  0  0  0  0
   -1.1577   -0.5672    1.6987 H   0  0  0  0  0  0  0  0  0  0  0  0
   -1.6096   -2.0500    0.6434 H   0  0  0  0  0  0  0  0  0  0  0  0
    0.3789   -1.6692   -0.6090 H   0  0  0  0  0  0  0  0  0  0  0  0
  1  2  2  0
  2  3  1  0
  3  4  1  0
  4  5  2  0
  5  6  1  0
  6  7  1  0
  7  8  1  0
  8  9  1  0
  9  3  1  0
  9  6  1  0
  2 10  1  0
  3 11  1  0
  4 12  1  0
  5 13  1  0
  6 14  1  0
  7 15  1  0
  7 16  1  0
  8 17  1  0
  8 18  1  0
  9 19  1  0
M  END
