
     RDKit          3D

 15 16  0  0  0  0  0  0  0  0999 V2000
    1.9184    1.0743   -1.0093 O   0  0  0  0  0  0  0  0  0  0  0  0
    1.8522   -0.0530   -0.5707 C   0  0  0  0  0  0  0  0  0  0  0  0
    0.6974   -0.4984    0.1865 C   0  0  0  0  0  0  0  0  0  0  0  0
   -0.5682   -0.7864   -0.6292 C   0  0  0  0  0  0  0  0  0  0  0  0
   -1.2845   -0.5042    0.6969 C   0  0  0  0  0  0  0  0  0  0  0  0
   -0.1831    0.5659    0.7917 C   0  0  0  0  0  0  0  0  0  0  0  0
   -0.5230    1.3959   -0.3739 C   0  0  0  0  0  0  0  0  0  0  0  0
   -0.5524    2.6342   -0.5442 O   0  0  0  0  0  0  0  0  0  0  0  0
   -0.8346    0.4021   -1.3374 O   0  0  0  0  0  0  0  0  0  0  0  0
    2.6785   -0.7167   -0.7602 H   0  0  0  0  0  0  0  0  0  0  0  0
    0.8805   -1.2933    0.9253 H   0  0  0  0  0  0  0  0  0  0  0  0
   -0.6817   -1.7310   -1.0730 H   0  0  0  0  0  0  0  0  0  0  0  0
   -1.1352   -1.3620    1.3679 H   0  0  0  0  0  0  0  0  0  0  0  0
   -2.2965   -0.1061    0.5989 H   0  0  0  0  0  0  0  0  0  0  0  0
    0.0324    0.9788    1.7306 H   0  0  0  0  0  0  0  0  0  0  0  0
  1  2  2  0
  2  3  1  0
  3  4  1  0
  4  5  1  0
  5  6  1  0
  6  7  1  0
  7  8  2  0
  7  9  1  0
  6  3  1  0
  9  4  1  0
  2 10  1  0
  3 11  1  0
  4 12  1  0
  5 13  1  0
  5 14  1  0
  6 15  1  0
M  END
