
     RDKit          3D

 15 15  0  0  0  0  0  0  0  0999 V2000
    4.6090    0.3433    0.3719 O   0  0  0  0  0  0  0  0  0  0  0  0
    3.7533   -0.5624    0.2339 C   0  0  0  0  0  0  0  0  0  0  0  0
    2.3381   -0.3595    0.1662 C   0  0  0  0  0  0  0  0  0  0  0  0
    1.1474   -0.1763    0.0921 C   0  0  0  0  0  0  0  0  0  0  0  0
   -0.2770    0.0317    0.0130 C   0  0  0  0  0  0  0  0  0  0  0  0
   -1.2032   -0.2534    0.9083 C   0  0  0  0  0  0  0  0  0  0  0  0
   -2.5107    0.1522    0.3506 C   0  0  0  0  0  0  0  0  0  0  0  0
   -2.1597    1.1309   -0.5685 O   0  0  0  0  0  0  0  0  0  0  0  0
   -0.9788    0.6388   -1.1493 C   0  0  0  0  0  0  0  0  0  0  0  0
    4.1219   -1.5714    0.1614 H   0  0  0  0  0  0  0  0  0  0  0  0
   -1.0209   -0.7061    1.8786 H   0  0  0  0  0  0  0  0  0  0  0  0
   -3.0809    0.6531    1.1680 H   0  0  0  0  0  0  0  0  0  0  0  0
   -3.0714   -0.6876   -0.0945 H   0  0  0  0  0  0  0  0  0  0  0  0
   -0.4180    1.4614   -1.6143 H   0  0  0  0  0  0  0  0  0  0  0  0
   -1.2492   -0.0947   -1.9174 H   0  0  0  0  0  0  0  0  0  0  0  0
  1  2  2  0
  2  3  1  0
  3  4  3  0
  4  5  1  0
  5  6  2  0
  6  7  1  0
  7  8  1  0
  8  9  1  0
  9  5  1  0
  2 10  1  0
  6 11  1  0
  7 12  1  0
  7 13  1  0
  9 14  1  0
  9 15  1  0
M  END
