
     RDKit          3D

 16 15  0  0  0  0  0  0  0  0999 V2000
    2.7480    1.6771   -0.0082 O   0  0  0  0  0  0  0  0  0  0  0  0
    2.8830    0.4213   -0.1315 C   0  0  0  0  0  0  0  0  0  0  0  0
    1.7101   -0.4202   -0.1176 C   0  0  0  0  0  0  0  0  0  0  0  0
    1.8328   -1.6559   -0.2380 O   0  0  0  0  0  0  0  0  0  0  0  0
    0.3850    0.1681    0.0365 C   0  0  0  0  0  0  0  0  0  0  0  0
   -0.7300   -0.8465    0.0302 C   0  0  0  0  0  0  0  0  0  0  0  0
   -2.0322   -0.0860    0.1979 C   0  0  0  0  0  0  0  0  0  0  0  0
   -2.1486    0.8059   -0.8762 O   0  0  0  0  0  0  0  0  0  0  0  0
    3.8877    0.0281   -0.2436 H   0  0  0  0  0  0  0  0  0  0  0  0
    0.1300    0.9199   -0.7557 H   0  0  0  0  0  0  0  0  0  0  0  0
    0.3807    0.7406    0.9922 H   0  0  0  0  0  0  0  0  0  0  0  0
   -0.6174   -1.6223    0.8000 H   0  0  0  0  0  0  0  0  0  0  0  0
   -0.7622   -1.3546   -0.9513 H   0  0  0  0  0  0  0  0  0  0  0  0
   -2.9121   -0.7777    0.1607 H   0  0  0  0  0  0  0  0  0  0  0  0
   -1.9683    0.4633    1.1469 H   0  0  0  0  0  0  0  0  0  0  0  0
   -2.7864    1.5387   -0.6944 H   0  0  0  0  0  0  0  0  0  0  0  0
  1  2  2  0
  2  3  1  0
  3  4  2  0
  3  5  1  0
  5  6  1  0
  6  7  1  0
  7  8  1  0
  2  9  1  0
  5 10  1  0
  5 11  1  0
  6 12  1  0
  6 13  1  0
  7 14  1  0
  7 15  1  0
  8 16  1  0
M  END
