
     RDKit          3D

 15 17  0  0  0  0  0  0  0  0999 V2000
   -2.4757    1.1748    0.4202 O   0  0  0  0  0  0  0  0  0  0  0  0
   -2.0971    0.2325   -0.2445 C   0  0  0  0  0  0  0  0  0  0  0  0
   -0.9603   -0.5789    0.2099 C   0  0  0  0  0  0  0  0  0  0  0  0
   -0.4901   -0.0949    1.3930 O   0  0  0  0  0  0  0  0  0  0  0  0
    0.7128    0.5532    1.1852 C   0  0  0  0  0  0  0  0  0  0  0  0
    1.7263   -0.3431    0.4415 C   0  0  0  0  0  0  0  0  0  0  0  0
    1.2211   -1.3306   -0.3896 O   0  0  0  0  0  0  0  0  0  0  0  0
    0.1913   -0.5159   -0.8029 C   0  0  0  0  0  0  0  0  0  0  0  0
    0.9408    0.6578   -0.2494 C   0  0  0  0  0  0  0  0  0  0  0  0
   -2.6019   -0.0071   -1.1744 H   0  0  0  0  0  0  0  0  0  0  0  0
   -1.2205   -1.6520    0.3517 H   0  0  0  0  0  0  0  0  0  0  0  0
    1.1096    1.2038    1.9493 H   0  0  0  0  0  0  0  0  0  0  0  0
    2.7736   -0.2890    0.7109 H   0  0  0  0  0  0  0  0  0  0  0  0
   -0.0927   -0.5083   -1.8441 H   0  0  0  0  0  0  0  0  0  0  0  0
    1.2627    1.4976   -0.8167 H   0  0  0  0  0  0  0  0  0  0  0  0
  1  2  2  0
  2  3  1  0
  3  4  1  0
  4  5  1  0
  5  6  1  0
  6  7  1  0
  7  8  1  0
  8  9  1  0
  8  3  1  0
  9  5  1  0
  9  6  1  0
  2 10  1  0
  3 11  1  0
  5 12  1  0
  6 13  1  0
  8 14  1  0
  9 15  1  0
M  END
