
     RDKit          3D

 15 16  0  0  0  0  0  0  0  0999 V2000
    1.4983   -1.9021   -0.5515 O   0  0  0  0  0  0  0  0  0  0  0  0
    1.1218   -1.0863    0.2638 C   0  0  0  0  0  0  0  0  0  0  0  0
    0.5090    0.1693   -0.3428 C   0  0  0  0  0  0  0  0  0  0  0  0
    0.9993    1.3446    0.2926 C   0  0  0  0  0  0  0  0  0  0  0  0
   -0.3229    1.0358    0.6986 C   0  0  0  0  0  0  0  0  0  0  0  0
   -0.9648   -0.3078    0.8654 C   0  0  0  0  0  0  0  0  0  0  0  0
   -1.3185   -1.0774    1.7075 O   0  0  0  0  0  0  0  0  0  0  0  0
   -0.9367   -0.1905   -0.6531 C   0  0  0  0  0  0  0  0  0  0  0  0
   -1.0741   -1.4217   -1.2509 O   0  0  0  0  0  0  0  0  0  0  0  0
    1.1823   -1.1729    1.3215 H   0  0  0  0  0  0  0  0  0  0  0  0
    1.7903    1.3423    1.1054 H   0  0  0  0  0  0  0  0  0  0  0  0
    1.2071    2.2304   -0.3805 H   0  0  0  0  0  0  0  0  0  0  0  0
   -1.1245    1.6778    0.2029 H   0  0  0  0  0  0  0  0  0  0  0  0
   -1.5484    0.6316   -1.0412 H   0  0  0  0  0  0  0  0  0  0  0  0
   -1.0183   -1.2730   -2.2378 H   0  0  0  0  0  0  0  0  0  0  0  0
  1  2  2  0
  2  3  1  0
  3  4  1  0
  4  5  1  0
  5  6  1  0
  6  7  2  0
  6  8  1  0
  8  9  1  0
  5  3  1  0
  8  3  1  0
  2 10  1  0
  4 11  1  0
  4 12  1  0
  5 13  1  0
  8 14  1  0
  9 15  1  0
M  END
