
     RDKit          3D

 16 16  0  0  0  0  0  0  0  0999 V2000
    2.4017   -1.3489    0.5570 O   0  0  0  0  0  0  0  0  0  0  0  0
    2.0158   -0.4785   -0.1842 C   0  0  0  0  0  0  0  0  0  0  0  0
    1.0194    0.4970    0.2848 C   0  0  0  0  0  0  0  0  0  0  0  0
    0.6554    1.4369   -0.6377 O   0  0  0  0  0  0  0  0  0  0  0  0
   -0.1936   -0.2033    0.9019 C   0  0  0  0  0  0  0  0  0  0  0  0
   -0.9532   -1.1279    0.0056 C   0  0  0  0  0  0  0  0  0  0  0  0
   -1.5503    0.1586    0.4778 C   0  0  0  0  0  0  0  0  0  0  0  0
   -1.7634    1.1632   -0.4800 O   0  0  0  0  0  0  0  0  0  0  0  0
    2.4043   -0.4250   -1.1798 H   0  0  0  0  0  0  0  0  0  0  0  0
    1.4963    1.0499    1.1468 H   0  0  0  0  0  0  0  0  0  0  0  0
    1.2601    2.1863   -0.7476 H   0  0  0  0  0  0  0  0  0  0  0  0
   -0.0755   -0.5467    1.9623 H   0  0  0  0  0  0  0  0  0  0  0  0
   -1.3259   -2.0909    0.4375 H   0  0  0  0  0  0  0  0  0  0  0  0
   -0.7447   -1.1820   -1.0715 H   0  0  0  0  0  0  0  0  0  0  0  0
   -2.3919    0.0821    1.2043 H   0  0  0  0  0  0  0  0  0  0  0  0
   -2.2545    0.8290   -1.2644 H   0  0  0  0  0  0  0  0  0  0  0  0
  1  2  2  0
  2  3  1  0
  3  4  1  0
  3  5  1  0
  5  6  1  0
  6  7  1  0
  7  8  1  0
  7  5  1  0
  2  9  1  0
  3 10  1  0
  4 11  1  0
  5 12  1  0
  6 13  1  0
  6 14  1  0
  7 15  1  0
  8 16  1  0
M  END
