
     RDKit          3D

 17 17  0  0  0  0  0  0  0  0999 V2000
    2.6479   -1.9752    0.3777 O   0  0  0  0  0  0  0  0  0  0  0  0
    2.1814   -0.8960    0.6667 C   0  0  0  0  0  0  0  0  0  0  0  0
    0.8438   -0.5150    0.2151 C   0  0  0  0  0  0  0  0  0  0  0  0
    0.2108   -1.4816   -0.5398 O   0  0  0  0  0  0  0  0  0  0  0  0
   -1.0352   -1.0916   -0.9441 C   0  0  0  0  0  0  0  0  0  0  0  0
   -1.6751   -0.0767   -0.0679 C   0  0  0  0  0  0  0  0  0  0  0  0
   -1.1036    1.0785    0.2902 C   0  0  0  0  0  0  0  0  0  0  0  0
    0.2318    1.6429   -0.0541 C   0  0  0  0  0  0  0  0  0  0  0  0
    0.9765    0.6217   -0.6135 O   0  0  0  0  0  0  0  0  0  0  0  0
    2.7741   -0.2261    1.2626 H   0  0  0  0  0  0  0  0  0  0  0  0
    0.1660   -0.2929    1.0792 H   0  0  0  0  0  0  0  0  0  0  0  0
   -1.7382   -1.9691   -0.9955 H   0  0  0  0  0  0  0  0  0  0  0  0
   -1.0522   -0.6646   -1.9886 H   0  0  0  0  0  0  0  0  0  0  0  0
   -2.6799   -0.2807    0.3133 H   0  0  0  0  0  0  0  0  0  0  0  0
   -1.7037    1.6882    0.9226 H   0  0  0  0  0  0  0  0  0  0  0  0
    0.1759    2.4598   -0.7815 H   0  0  0  0  0  0  0  0  0  0  0  0
    0.7797    1.9783    0.8575 H   0  0  0  0  0  0  0  0  0  0  0  0
  1  2  2  0
  2  3  1  0
  3  4  1  0
  4  5  1  0
  5  6  1  0
  6  7  2  0
  7  8  1  0
  8  9  1  0
  9  3  1  0
  2 10  1  0
  3 11  1  0
  5 12  1  0
  5 13  1  0
  6 14  1  0
  7 15  1  0
  8 16  1  0
  8 17  1  0
M  END
