
     RDKit          3D

 21 20  0  0  0  0  0  0  0  0999 V2000
    2.3017   -0.3345   -1.1469 O   0  0  0  0  0  0  0  0  0  0  0  0
    2.4835   -0.6279    0.0103 C   0  0  0  0  0  0  0  0  0  0  0  0
    1.5309   -0.1296    1.0223 C   0  0  0  0  0  0  0  0  0  0  0  0
    0.4421    0.6782    0.4390 C   0  0  0  0  0  0  0  0  0  0  0  0
   -0.4438    0.0210   -0.5560 C   0  0  0  0  0  0  0  0  0  0  0  0
   -1.1750   -1.1831   -0.0144 C   0  0  0  0  0  0  0  0  0  0  0  0
   -0.3174   -2.1756    0.4296 O   0  0  0  0  0  0  0  0  0  0  0  0
   -1.5425    1.0526   -0.8706 C   0  0  0  0  0  0  0  0  0  0  0  0
   -0.9605    2.2153   -1.3937 O   0  0  0  0  0  0  0  0  0  0  0  0
    3.3208   -1.2368    0.2843 H   0  0  0  0  0  0  0  0  0  0  0  0
    2.1308    0.5623    1.6860 H   0  0  0  0  0  0  0  0  0  0  0  0
    1.2015   -0.9369    1.7035 H   0  0  0  0  0  0  0  0  0  0  0  0
    0.8996    1.5686   -0.0607 H   0  0  0  0  0  0  0  0  0  0  0  0
   -0.2023    1.0851    1.2499 H   0  0  0  0  0  0  0  0  0  0  0  0
    0.0164   -0.2258   -1.5288 H   0  0  0  0  0  0  0  0  0  0  0  0
   -1.8905   -0.8457    0.7562 H   0  0  0  0  0  0  0  0  0  0  0  0
   -1.7660   -1.6147   -0.8474 H   0  0  0  0  0  0  0  0  0  0  0  0
   -0.7565   -2.7846    1.0492 H   0  0  0  0  0  0  0  0  0  0  0  0
   -2.3001    0.6169   -1.5370 H   0  0  0  0  0  0  0  0  0  0  0  0
   -2.0411    1.3414    0.0797 H   0  0  0  0  0  0  0  0  0  0  0  0
   -0.9315    2.9540   -0.7543 H   0  0  0  0  0  0  0  0  0  0  0  0
  1  2  2  0
  2  3  1  0
  3  4  1  0
  4  5  1  0
  5  6  1  0
  6  7  1  0
  5  8  1  0
  8  9  1  0
  2 10  1  0
  3 11  1  0
  3 12  1  0
  4 13  1  0
  4 14  1  0
  5 15  1  0
  6 16  1  0
  6 17  1  0
  7 18  1  0
  8 19  1  0
  8 20  1  0
  9 21  1  0
M  END
