
     RDKit          3D

 17 16  0  0  0  0  0  0  0  0999 V2000
   -2.3510    1.9803   -1.0040 O   0  0  0  0  0  0  0  0  0  0  0  0
   -2.4280    0.8335   -0.6560 C   0  0  0  0  0  0  0  0  0  0  0  0
   -1.5882    0.3020    0.4168 C   0  0  0  0  0  0  0  0  0  0  0  0
   -1.8517   -1.0466    0.6461 O   0  0  0  0  0  0  0  0  0  0  0  0
   -0.1357    0.4456    0.1721 C   0  0  0  0  0  0  0  0  0  0  0  0
    0.3748    1.5272   -0.0580 O   0  0  0  0  0  0  0  0  0  0  0  0
    0.7309   -0.7547    0.2060 C   0  0  0  0  0  0  0  0  0  0  0  0
    2.1757   -0.3961   -0.0676 C   0  0  0  0  0  0  0  0  0  0  0  0
    2.2266    0.1899   -1.3459 O   0  0  0  0  0  0  0  0  0  0  0  0
   -3.1328    0.1786   -1.1452 H   0  0  0  0  0  0  0  0  0  0  0  0
   -1.7865    0.8947    1.3624 H   0  0  0  0  0  0  0  0  0  0  0  0
   -1.4755   -1.3369    1.5274 H   0  0  0  0  0  0  0  0  0  0  0  0
    0.4383   -1.5158   -0.5652 H   0  0  0  0  0  0  0  0  0  0  0  0
    0.6705   -1.3001    1.1800 H   0  0  0  0  0  0  0  0  0  0  0  0
    2.6034    0.2648    0.6995 H   0  0  0  0  0  0  0  0  0  0  0  0
    2.7915   -1.2979   -0.1160 H   0  0  0  0  0  0  0  0  0  0  0  0
    2.7379    1.0316   -1.2524 H   0  0  0  0  0  0  0  0  0  0  0  0
  1  2  2  0
  2  3  1  0
  3  4  1  0
  3  5  1  0
  5  6  2  0
  5  7  1  0
  7  8  1  0
  8  9  1  0
  2 10  1  0
  3 11  1  0
  4 12  1  0
  7 13  1  0
  7 14  1  0
  8 15  1  0
  8 16  1  0
  9 17  1  0
M  END
