
     RDKit          3D

 19 20  0  0  0  0  0  0  0  0999 V2000
    2.8397   -0.3885    1.1708 O   0  0  0  0  0  0  0  0  0  0  0  0
    1.9277    0.3667    0.8780 C   0  0  0  0  0  0  0  0  0  0  0  0
    1.0363    0.0176   -0.2262 C   0  0  0  0  0  0  0  0  0  0  0  0
    0.4233   -1.3862   -0.0291 C   0  0  0  0  0  0  0  0  0  0  0  0
   -1.0270   -1.0312   -0.1348 C   0  0  0  0  0  0  0  0  0  0  0  0
   -1.0404   -0.0179   -1.2863 C   0  0  0  0  0  0  0  0  0  0  0  0
   -0.2191    0.8179   -0.2917 C   0  0  0  0  0  0  0  0  0  0  0  0
   -0.2116    2.1336   -0.4269 O   0  0  0  0  0  0  0  0  0  0  0  0
   -1.1343    0.1877    0.7656 C   0  0  0  0  0  0  0  0  0  0  0  0
    1.8229    1.2693    1.4581 H   0  0  0  0  0  0  0  0  0  0  0  0
    1.5277    0.0659   -1.2310 H   0  0  0  0  0  0  0  0  0  0  0  0
    0.6078   -1.7321    1.0197 H   0  0  0  0  0  0  0  0  0  0  0  0
    0.7874   -2.0785   -0.7873 H   0  0  0  0  0  0  0  0  0  0  0  0
   -1.7810   -1.7660   -0.1071 H   0  0  0  0  0  0  0  0  0  0  0  0
   -2.0408    0.3807   -1.4795 H   0  0  0  0  0  0  0  0  0  0  0  0
   -0.4165   -0.2968   -2.1395 H   0  0  0  0  0  0  0  0  0  0  0  0
   -0.2768    2.6931    0.3735 H   0  0  0  0  0  0  0  0  0  0  0  0
   -2.1361    0.6772    0.7207 H   0  0  0  0  0  0  0  0  0  0  0  0
   -0.6894    0.0876    1.7531 H   0  0  0  0  0  0  0  0  0  0  0  0
  1  2  2  0
  2  3  1  0
  3  4  1  0
  4  5  1  0
  5  6  1  0
  6  7  1  0
  7  8  1  0
  7  9  1  0
  7  3  1  0
  9  5  1  0
  2 10  1  0
  3 11  1  0
  4 12  1  0
  4 13  1  0
  5 14  1  0
  6 15  1  0
  6 16  1  0
  8 17  1  0
  9 18  1  0
  9 19  1  0
M  END
