
     RDKit          3D

 17 17  0  0  0  0  0  0  0  0999 V2000
    3.2606    0.0623    0.4783 O   0  0  0  0  0  0  0  0  0  0  0  0
    2.3780    0.8474    0.0469 C   0  0  0  0  0  0  0  0  0  0  0  0
    0.9719    0.4674    0.0162 C   0  0  0  0  0  0  0  0  0  0  0  0
   -0.0261    1.2162   -0.4156 C   0  0  0  0  0  0  0  0  0  0  0  0
   -1.2846    0.4562   -0.2727 C   0  0  0  0  0  0  0  0  0  0  0  0
   -1.7584    0.6540    1.0214 O   0  0  0  0  0  0  0  0  0  0  0  0
   -0.8208   -0.9774   -0.3663 C   0  0  0  0  0  0  0  0  0  0  0  0
   -1.7239   -1.8723    0.1576 O   0  0  0  0  0  0  0  0  0  0  0  0
    0.4497   -0.8695    0.4750 C   0  0  0  0  0  0  0  0  0  0  0  0
    2.7257    1.8108   -0.2955 H   0  0  0  0  0  0  0  0  0  0  0  0
    0.0501    2.2444   -0.8203 H   0  0  0  0  0  0  0  0  0  0  0  0
   -2.0363    0.7110   -1.0395 H   0  0  0  0  0  0  0  0  0  0  0  0
   -1.7687    1.6069    1.2365 H   0  0  0  0  0  0  0  0  0  0  0  0
   -0.5255   -1.1978   -1.3977 H   0  0  0  0  0  0  0  0  0  0  0  0
   -1.3479   -2.6861    0.5314 H   0  0  0  0  0  0  0  0  0  0  0  0
    0.2496   -0.8533    1.5470 H   0  0  0  0  0  0  0  0  0  0  0  0
    1.2066   -1.6201    0.1792 H   0  0  0  0  0  0  0  0  0  0  0  0
  1  2  2  0
  2  3  1  0
  3  4  2  0
  4  5  1  0
  5  6  1  0
  5  7  1  0
  7  8  1  0
  7  9  1  0
  9  3  1  0
  2 10  1  0
  4 11  1  0
  5 12  1  0
  6 13  1  0
  7 14  1  0
  8 15  1  0
  9 16  1  0
  9 17  1  0
M  END
