
     RDKit          3D

 17 18  0  0  0  0  0  0  0  0999 V2000
    0.5025    2.6136   -1.0595 O   0  0  0  0  0  0  0  0  0  0  0  0
    0.9658    1.8812   -0.2192 C   0  0  0  0  0  0  0  0  0  0  0  0
    0.3657    0.5827    0.1780 C   0  0  0  0  0  0  0  0  0  0  0  0
   -0.7813    0.6316    1.1200 C   0  0  0  0  0  0  0  0  0  0  0  0
   -1.3122   -0.6548    1.0883 O   0  0  0  0  0  0  0  0  0  0  0  0
   -1.3822   -0.9723   -0.2560 C   0  0  0  0  0  0  0  0  0  0  0  0
   -0.1404   -0.3534   -0.9062 C   0  0  0  0  0  0  0  0  0  0  0  0
    1.1070   -0.6276   -0.1642 C   0  0  0  0  0  0  0  0  0  0  0  0
    1.1227   -1.7438    0.7027 O   0  0  0  0  0  0  0  0  0  0  0  0
    1.8892    2.1556    0.3093 H   0  0  0  0  0  0  0  0  0  0  0  0
   -1.5799    1.2943    0.6732 H   0  0  0  0  0  0  0  0  0  0  0  0
   -0.5647    0.9903    2.1211 H   0  0  0  0  0  0  0  0  0  0  0  0
   -2.3064   -0.6738   -0.7482 H   0  0  0  0  0  0  0  0  0  0  0  0
   -1.1986   -2.0854   -0.3122 H   0  0  0  0  0  0  0  0  0  0  0  0
   -0.1823   -0.0174   -1.9370 H   0  0  0  0  0  0  0  0  0  0  0  0
    2.0403   -0.5178   -0.7173 H   0  0  0  0  0  0  0  0  0  0  0  0
    1.4549   -2.5032    0.1272 H   0  0  0  0  0  0  0  0  0  0  0  0
  1  2  2  0
  2  3  1  0
  3  4  1  0
  4  5  1  0
  5  6  1  0
  6  7  1  0
  7  8  1  0
  8  9  1  0
  7  3  1  0
  8  3  1  0
  2 10  1  0
  4 11  1  0
  4 12  1  0
  6 13  1  0
  6 14  1  0
  7 15  1  0
  8 16  1  0
  9 17  1  0
M  END
