
     RDKit          3D

 19 20  0  0  0  0  0  0  0  0999 V2000
    2.0015    2.0782   -0.9002 O   0  0  0  0  0  0  0  0  0  0  0  0
    1.2157    1.1514   -0.9407 C   0  0  0  0  0  0  0  0  0  0  0  0
    0.9182    0.3694    0.2506 C   0  0  0  0  0  0  0  0  0  0  0  0
    1.6239   -0.9757    0.2881 C   0  0  0  0  0  0  0  0  0  0  0  0
    0.8650   -1.8076    1.0619 O   0  0  0  0  0  0  0  0  0  0  0  0
   -0.4262   -1.3563    1.0949 C   0  0  0  0  0  0  0  0  0  0  0  0
   -0.5110   -0.0454    0.3953 C   0  0  0  0  0  0  0  0  0  0  0  0
   -1.4900    0.9898    0.7195 C   0  0  0  0  0  0  0  0  0  0  0  0
   -1.5581    0.2396   -0.5815 C   0  0  0  0  0  0  0  0  0  0  0  0
    0.7525    0.9365   -1.8916 H   0  0  0  0  0  0  0  0  0  0  0  0
    1.2102    0.8914    1.1910 H   0  0  0  0  0  0  0  0  0  0  0  0
    1.7774   -1.3919   -0.7272 H   0  0  0  0  0  0  0  0  0  0  0  0
    2.6115   -0.8474    0.7971 H   0  0  0  0  0  0  0  0  0  0  0  0
   -0.7130   -1.2020    2.1599 H   0  0  0  0  0  0  0  0  0  0  0  0
   -1.0776   -2.1223    0.6268 H   0  0  0  0  0  0  0  0  0  0  0  0
   -1.1515    2.0421    0.6368 H   0  0  0  0  0  0  0  0  0  0  0  0
   -2.2320    0.7827    1.5168 H   0  0  0  0  0  0  0  0  0  0  0  0
   -1.4106    0.7618   -1.5311 H   0  0  0  0  0  0  0  0  0  0  0  0
   -2.4058   -0.4942   -0.6203 H   0  0  0  0  0  0  0  0  0  0  0  0
  1  2  2  0
  2  3  1  0
  3  4  1  0
  4  5  1  0
  5  6  1  0
  6  7  1  0
  7  8  1  0
  8  9  1  0
  7  3  1  0
  9  7  1  0
  2 10  1  0
  3 11  1  0
  4 12  1  0
  4 13  1  0
  6 14  1  0
  6 15  1  0
  8 16  1  0
  8 17  1  0
  9 18  1  0
  9 19  1  0
M  END
