
     RDKit          3D

 19 20  0  0  0  0  0  0  0  0999 V2000
    1.6252   -1.1060   -2.0564 O   0  0  0  0  0  0  0  0  0  0  0  0
    1.5868   -1.0207   -0.8406 C   0  0  0  0  0  0  0  0  0  0  0  0
    0.5449   -0.3367   -0.0685 C   0  0  0  0  0  0  0  0  0  0  0  0
    0.9910    0.9543    0.5293 C   0  0  0  0  0  0  0  0  0  0  0  0
   -0.0272    1.9803    0.1743 C   0  0  0  0  0  0  0  0  0  0  0  0
   -0.9888    1.4397   -0.5465 C   0  0  0  0  0  0  0  0  0  0  0  0
   -0.7258   -0.0010   -0.7549 C   0  0  0  0  0  0  0  0  0  0  0  0
   -1.4953   -0.8182    0.2577 C   0  0  0  0  0  0  0  0  0  0  0  0
   -0.1941   -1.2767    0.8569 C   0  0  0  0  0  0  0  0  0  0  0  0
    2.3967   -1.4946   -0.2953 H   0  0  0  0  0  0  0  0  0  0  0  0
    1.1311    0.8960    1.6424 H   0  0  0  0  0  0  0  0  0  0  0  0
    1.9563    1.2579    0.0353 H   0  0  0  0  0  0  0  0  0  0  0  0
    0.0779    3.0147    0.5020 H   0  0  0  0  0  0  0  0  0  0  0  0
   -1.8457    1.9559   -0.9340 H   0  0  0  0  0  0  0  0  0  0  0  0
   -0.8380   -0.3253   -1.8051 H   0  0  0  0  0  0  0  0  0  0  0  0
   -2.0596   -0.2207    1.0052 H   0  0  0  0  0  0  0  0  0  0  0  0
   -2.0917   -1.5843   -0.2664 H   0  0  0  0  0  0  0  0  0  0  0  0
   -0.0220   -2.3511    0.6599 H   0  0  0  0  0  0  0  0  0  0  0  0
   -0.0219   -0.9637    1.9046 H   0  0  0  0  0  0  0  0  0  0  0  0
  1  2  2  0
  2  3  1  0
  3  4  1  0
  4  5  1  0
  5  6  2  0
  6  7  1  0
  7  8  1  0
  8  9  1  0
  7  3  1  0
  9  3  1  0
  2 10  1  0
  4 11  1  0
  4 12  1  0
  5 13  1  0
  6 14  1  0
  7 15  1  0
  8 16  1  0
  8 17  1  0
  9 18  1  0
  9 19  1  0
M  END
