
     RDKit          3D

 14 14  0  0  0  0  0  0  0  0999 V2000
    1.8331   -1.1463   -0.6985 O   0  0  0  0  0  0  0  0  0  0  0  0
    2.0386    0.0261   -0.3277 C   0  0  0  0  0  0  0  0  0  0  0  0
    0.9240    0.8395    0.1117 C   0  0  0  0  0  0  0  0  0  0  0  0
    1.1937    2.0371    0.4831 O   0  0  0  0  0  0  0  0  0  0  0  0
   -0.4812    0.4185    0.1709 C   0  0  0  0  0  0  0  0  0  0  0  0
   -1.4292    1.4654    0.2927 O   0  0  0  0  0  0  0  0  0  0  0  0
   -0.9989   -0.7690   -0.5475 C   0  0  0  0  0  0  0  0  0  0  0  0
   -0.7506   -0.8396    0.9240 C   0  0  0  0  0  0  0  0  0  0  0  0
    3.0367    0.4105   -0.3415 H   0  0  0  0  0  0  0  0  0  0  0  0
   -1.3408    1.9849   -0.5486 H   0  0  0  0  0  0  0  0  0  0  0  0
   -2.0927   -0.7840   -0.8117 H   0  0  0  0  0  0  0  0  0  0  0  0
   -0.4125   -1.3857   -1.2299 H   0  0  0  0  0  0  0  0  0  0  0  0
   -1.6053   -0.7835    1.6366 H   0  0  0  0  0  0  0  0  0  0  0  0
    0.0851   -1.4738    1.2841 H   0  0  0  0  0  0  0  0  0  0  0  0
  1  2  2  0
  2  3  1  0
  3  4  2  0
  3  5  1  0
  5  6  1  0
  5  7  1  0
  7  8  1  0
  8  5  1  0
  2  9  1  0
  6 10  1  0
  7 11  1  0
  7 12  1  0
  8 13  1  0
  8 14  1  0
M  END
