
     RDKit          3D

 15 15  0  0  0  0  0  0  0  0999 V2000
   -1.2431   -1.8156    1.5225 O   0  0  0  0  0  0  0  0  0  0  0  0
   -1.3927   -1.1751    0.5048 C   0  0  0  0  0  0  0  0  0  0  0  0
   -1.0875    0.2446    0.4247 C   0  0  0  0  0  0  0  0  0  0  0  0
   -1.3093    0.8673   -0.8264 O   0  0  0  0  0  0  0  0  0  0  0  0
   -0.2729    1.7206   -0.5250 C   0  0  0  0  0  0  0  0  0  0  0  0
    0.0016    2.8948   -0.8018 O   0  0  0  0  0  0  0  0  0  0  0  0
    0.3491    0.6377    0.2560 C   0  0  0  0  0  0  0  0  0  0  0  0
    1.1715   -0.2522   -0.6363 C   0  0  0  0  0  0  0  0  0  0  0  0
    1.2313   -1.5651   -0.1909 O   0  0  0  0  0  0  0  0  0  0  0  0
   -1.7665   -1.6869   -0.3676 H   0  0  0  0  0  0  0  0  0  0  0  0
   -1.5560    0.8620    1.2184 H   0  0  0  0  0  0  0  0  0  0  0  0
    0.8703    0.9367    1.1785 H   0  0  0  0  0  0  0  0  0  0  0  0
    0.8684   -0.1876   -1.6966 H   0  0  0  0  0  0  0  0  0  0  0  0
    2.2205    0.1378   -0.5987 H   0  0  0  0  0  0  0  0  0  0  0  0
    1.9153   -1.6192    0.5384 H   0  0  0  0  0  0  0  0  0  0  0  0
  1  2  2  0
  2  3  1  0
  3  4  1  0
  4  5  1  0
  5  6  2  0
  5  7  1  0
  7  8  1  0
  8  9  1  0
  7  3  1  0
  2 10  1  0
  3 11  1  0
  7 12  1  0
  8 13  1  0
  8 14  1  0
  9 15  1  0
M  END
