
     RDKit          3D

 17 17  0  0  0  0  0  0  0  0999 V2000
    3.0089    1.4484   -0.7350 O   0  0  0  0  0  0  0  0  0  0  0  0
    2.4682    0.3252   -0.5524 C   0  0  0  0  0  0  0  0  0  0  0  0
    1.0729    0.2121   -0.1445 C   0  0  0  0  0  0  0  0  0  0  0  0
    0.3819    1.3463    0.0304 C   0  0  0  0  0  0  0  0  0  0  0  0
   -1.0000    1.3018    0.4328 C   0  0  0  0  0  0  0  0  0  0  0  0
   -1.5813    2.3108    0.9045 O   0  0  0  0  0  0  0  0  0  0  0  0
   -1.7854    0.0605    0.3037 C   0  0  0  0  0  0  0  0  0  0  0  0
   -1.0239   -1.1396   -0.0876 C   0  0  0  0  0  0  0  0  0  0  0  0
    0.4530   -1.1011    0.0655 C   0  0  0  0  0  0  0  0  0  0  0  0
    3.0295   -0.5845   -0.6947 H   0  0  0  0  0  0  0  0  0  0  0  0
    0.8750    2.3044   -0.1346 H   0  0  0  0  0  0  0  0  0  0  0  0
   -2.3474   -0.0763    1.2754 H   0  0  0  0  0  0  0  0  0  0  0  0
   -2.5756    0.2700   -0.4497 H   0  0  0  0  0  0  0  0  0  0  0  0
   -1.2479   -1.4162   -1.1556 H   0  0  0  0  0  0  0  0  0  0  0  0
   -1.4063   -1.9975    0.5094 H   0  0  0  0  0  0  0  0  0  0  0  0
    0.9206   -1.8125   -0.6492 H   0  0  0  0  0  0  0  0  0  0  0  0
    0.7579   -1.4518    1.0816 H   0  0  0  0  0  0  0  0  0  0  0  0
  1  2  2  0
  2  3  1  0
  3  4  2  0
  4  5  1  0
  5  6  2  0
  5  7  1  0
  7  8  1  0
  8  9  1  0
  9  3  1  0
  2 10  1  0
  4 11  1  0
  7 12  1  0
  7 13  1  0
  8 14  1  0
  8 15  1  0
  9 16  1  0
  9 17  1  0
M  END
