
     RDKit          3D

 19 20  0  0  0  0  0  0  0  0999 V2000
    0.5094    2.5749    1.3805 O   0  0  0  0  0  0  0  0  0  0  0  0
   -0.0991    1.8233    0.6525 C   0  0  0  0  0  0  0  0  0  0  0  0
    0.3757    0.4353    0.3317 C   0  0  0  0  0  0  0  0  0  0  0  0
   -0.7094   -0.5487    0.6272 C   0  0  0  0  0  0  0  0  0  0  0  0
   -1.9873   -0.2900   -0.1924 C   0  0  0  0  0  0  0  0  0  0  0  0
   -1.2050   -1.5400   -0.3168 C   0  0  0  0  0  0  0  0  0  0  0  0
    1.0711    0.3162   -0.9804 C   0  0  0  0  0  0  0  0  0  0  0  0
    2.2058   -0.2428   -0.1558 C   0  0  0  0  0  0  0  0  0  0  0  0
    1.5758    0.1990    0.9939 O   0  0  0  0  0  0  0  0  0  0  0  0
   -1.0393    2.2049    0.2222 H   0  0  0  0  0  0  0  0  0  0  0  0
   -0.8711   -0.7251    1.7192 H   0  0  0  0  0  0  0  0  0  0  0  0
   -1.9379    0.3935   -1.0370 H   0  0  0  0  0  0  0  0  0  0  0  0
   -2.9224   -0.2364    0.3937 H   0  0  0  0  0  0  0  0  0  0  0  0
   -0.7330   -1.7716   -1.2884 H   0  0  0  0  0  0  0  0  0  0  0  0
   -1.7039   -2.4434    0.1263 H   0  0  0  0  0  0  0  0  0  0  0  0
    0.6484   -0.3396   -1.7375 H   0  0  0  0  0  0  0  0  0  0  0  0
    1.4111    1.2922   -1.4281 H   0  0  0  0  0  0  0  0  0  0  0  0
    2.2126   -1.3393   -0.2269 H   0  0  0  0  0  0  0  0  0  0  0  0
    3.1986    0.2375   -0.3278 H   0  0  0  0  0  0  0  0  0  0  0  0
  1  2  2  0
  2  3  1  0
  3  4  1  0
  4  5  1  0
  5  6  1  0
  3  7  1  0
  7  8  1  0
  8  9  1  0
  9  3  1  0
  6  4  1  0
  2 10  1  0
  4 11  1  0
  5 12  1  0
  5 13  1  0
  6 14  1  0
  6 15  1  0
  7 16  1  0
  7 17  1  0
  8 18  1  0
  8 19  1  0
M  END
