
     RDKit          3D

 12 12  0  0  0  0  0  0  0  0999 V2000
    2.4662   -0.1745   -0.9103 O   0  0  0  0  0  0  0  0  0  0  0  0
    1.8062   -0.1908    0.1020 C   0  0  0  0  0  0  0  0  0  0  0  0
    0.3601   -0.4821    0.1756 C   0  0  0  0  0  0  0  0  0  0  0  0
   -0.4446    0.8144    0.2200 C   0  0  0  0  0  0  0  0  0  0  0  0
   -1.4226   -0.1684   -0.4369 C   0  0  0  0  0  0  0  0  0  0  0  0
   -0.2728   -0.7561   -1.0204 O   0  0  0  0  0  0  0  0  0  0  0  0
    2.3082    0.0248    1.0357 H   0  0  0  0  0  0  0  0  0  0  0  0
    0.0220   -1.1478    0.9670 H   0  0  0  0  0  0  0  0  0  0  0  0
   -0.7342    1.1384    1.2225 H   0  0  0  0  0  0  0  0  0  0  0  0
   -0.1353    1.5720   -0.5053 H   0  0  0  0  0  0  0  0  0  0  0  0
   -2.1224    0.2758   -1.1411 H   0  0  0  0  0  0  0  0  0  0  0  0
   -1.8306   -0.9056    0.2911 H   0  0  0  0  0  0  0  0  0  0  0  0
  1  2  2  0
  2  3  1  0
  3  4  1  0
  4  5  1  0
  5  6  1  0
  6  3  1  0
  2  7  1  0
  3  8  1  0
  4  9  1  0
  4 10  1  0
  5 11  1  0
  5 12  1  0
M  END
