
     RDKit          3D

 16 17  0  0  0  0  0  0  0  0999 V2000
    3.0009   -0.4854    0.4596 O   0  0  0  0  0  0  0  0  0  0  0  0
    1.9254    0.1211    0.4278 C   0  0  0  0  0  0  0  0  0  0  0  0
    0.6805   -0.6539    0.3099 C   0  0  0  0  0  0  0  0  0  0  0  0
   -0.5498   -0.0233    0.9310 C   0  0  0  0  0  0  0  0  0  0  0  0
   -0.5403    1.3358    0.3164 C   0  0  0  0  0  0  0  0  0  0  0  0
   -0.1197    1.0119   -1.0010 O   0  0  0  0  0  0  0  0  0  0  0  0
   -0.1014   -0.3561   -0.9818 C   0  0  0  0  0  0  0  0  0  0  0  0
   -1.3168   -0.7988   -0.1520 C   0  0  0  0  0  0  0  0  0  0  0  0
    1.9268    1.1871    0.4865 H   0  0  0  0  0  0  0  0  0  0  0  0
    0.7743   -1.7332    0.4377 H   0  0  0  0  0  0  0  0  0  0  0  0
   -0.7879   -0.1946    1.9369 H   0  0  0  0  0  0  0  0  0  0  0  0
   -1.5990    1.6779    0.1940 H   0  0  0  0  0  0  0  0  0  0  0  0
    0.1109    2.0655    0.7903 H   0  0  0  0  0  0  0  0  0  0  0  0
    0.1408   -0.9294   -1.8384 H   0  0  0  0  0  0  0  0  0  0  0  0
   -1.2870   -1.8902   -0.0245 H   0  0  0  0  0  0  0  0  0  0  0  0
   -2.2577   -0.3345   -0.4355 H   0  0  0  0  0  0  0  0  0  0  0  0
  1  2  2  0
  2  3  1  0
  3  4  1  0
  4  5  1  0
  5  6  1  0
  6  7  1  0
  7  8  1  0
  7  3  1  0
  8  4  1  0
  2  9  1  0
  3 10  1  0
  4 11  1  0
  5 12  1  0
  5 13  1  0
  7 14  1  0
  8 15  1  0
  8 16  1  0
M  END
