
     RDKit          3D

 21 22  0  0  0  0  0  0  0  0999 V2000
    3.7307   -0.7184    0.0722 O   0  0  0  0  0  0  0  0  0  0  0  0
    2.7411   -0.1998   -0.4063 C   0  0  0  0  0  0  0  0  0  0  0  0
    1.4172   -0.2076    0.2637 C   0  0  0  0  0  0  0  0  0  0  0  0
    0.8105    1.1600    0.4705 C   0  0  0  0  0  0  0  0  0  0  0  0
   -0.2349    0.8813   -0.5754 C   0  0  0  0  0  0  0  0  0  0  0  0
   -1.6516    0.8849   -0.1222 C   0  0  0  0  0  0  0  0  0  0  0  0
   -2.0500   -0.5254    0.1548 C   0  0  0  0  0  0  0  0  0  0  0  0
   -0.7668   -1.3527    0.1186 C   0  0  0  0  0  0  0  0  0  0  0  0
    0.2445   -0.5399   -0.6269 C   0  0  0  0  0  0  0  0  0  0  0  0
    2.8424    0.2874   -1.3660 H   0  0  0  0  0  0  0  0  0  0  0  0
    1.4556   -0.8097    1.2008 H   0  0  0  0  0  0  0  0  0  0  0  0
    0.4506    1.2884    1.4969 H   0  0  0  0  0  0  0  0  0  0  0  0
    1.4930    1.9401    0.1396 H   0  0  0  0  0  0  0  0  0  0  0  0
   -0.0703    1.4036   -1.5250 H   0  0  0  0  0  0  0  0  0  0  0  0
   -2.3126    1.2516   -0.9622 H   0  0  0  0  0  0  0  0  0  0  0  0
   -1.8456    1.5751    0.7315 H   0  0  0  0  0  0  0  0  0  0  0  0
   -2.5751   -0.6485    1.1310 H   0  0  0  0  0  0  0  0  0  0  0  0
   -2.7554   -0.9338   -0.6106 H   0  0  0  0  0  0  0  0  0  0  0  0
   -0.4814   -1.4968    1.2017 H   0  0  0  0  0  0  0  0  0  0  0  0
   -0.9429   -2.3551   -0.3087 H   0  0  0  0  0  0  0  0  0  0  0  0
    0.5011   -0.8849   -1.6491 H   0  0  0  0  0  0  0  0  0  0  0  0
  1  2  2  0
  2  3  1  0
  3  4  1  0
  4  5  1  0
  5  6  1  0
  6  7  1  0
  7  8  1  0
  8  9  1  0
  9  3  1  0
  9  5  1  0
  2 10  1  0
  3 11  1  0
  4 12  1  0
  4 13  1  0
  5 14  1  0
  6 15  1  0
  6 16  1  0
  7 17  1  0
  7 18  1  0
  8 19  1  0
  8 20  1  0
  9 21  1  0
M  END
