
     RDKit          3D

 15 15  0  0  0  0  0  0  0  0999 V2000
    3.1243   -0.4175    1.1630 O   0  0  0  0  0  0  0  0  0  0  0  0
    2.7664    0.1998    0.1297 C   0  0  0  0  0  0  0  0  0  0  0  0
    1.3853    0.2237   -0.3445 C   0  0  0  0  0  0  0  0  0  0  0  0
    1.1553    0.8875   -1.4064 O   0  0  0  0  0  0  0  0  0  0  0  0
    0.3064   -0.4737    0.3515 C   0  0  0  0  0  0  0  0  0  0  0  0
   -0.3267   -1.5861   -0.4255 O   0  0  0  0  0  0  0  0  0  0  0  0
   -1.0762   -0.4239    0.1820 C   0  0  0  0  0  0  0  0  0  0  0  0
   -1.9310    0.1466   -0.8800 C   0  0  0  0  0  0  0  0  0  0  0  0
   -1.3338    0.6165   -2.0074 O   0  0  0  0  0  0  0  0  0  0  0  0
    3.5340    0.7257   -0.4098 H   0  0  0  0  0  0  0  0  0  0  0  0
    0.6941   -1.0097    1.2779 H   0  0  0  0  0  0  0  0  0  0  0  0
   -1.7165   -0.8608    1.0207 H   0  0  0  0  0  0  0  0  0  0  0  0
   -2.4940    1.0137   -0.4215 H   0  0  0  0  0  0  0  0  0  0  0  0
   -2.6847   -0.6492   -1.1620 H   0  0  0  0  0  0  0  0  0  0  0  0
   -1.4030    1.6073   -2.1127 H   0  0  0  0  0  0  0  0  0  0  0  0
  1  2  2  0
  2  3  1  0
  3  4  2  0
  3  5  1  0
  5  6  1  0
  6  7  1  0
  7  8  1  0
  8  9  1  0
  7  5  1  0
  2 10  1  0
  5 11  1  0
  7 12  1  0
  8 13  1  0
  8 14  1  0
  9 15  1  0
M  END
