
     RDKit          3D

 19 19  0  0  0  0  0  0  0  0999 V2000
   -0.7561    2.1759   -1.8528 O   0  0  0  0  0  0  0  0  0  0  0  0
   -1.1987    1.7199   -0.8280 C   0  0  0  0  0  0  0  0  0  0  0  0
   -0.5661    0.5317   -0.2184 C   0  0  0  0  0  0  0  0  0  0  0  0
    0.9034    0.7588   -0.0244 C   0  0  0  0  0  0  0  0  0  0  0  0
    1.6123   -0.4240    0.5981 C   0  0  0  0  0  0  0  0  0  0  0  0
    2.9665   -0.0207    0.6977 O   0  0  0  0  0  0  0  0  0  0  0  0
   -0.9561   -0.7896   -0.8241 C   0  0  0  0  0  0  0  0  0  0  0  0
   -1.5853   -1.1119    0.5129 C   0  0  0  0  0  0  0  0  0  0  0  0
   -1.2068    0.1307    0.9728 O   0  0  0  0  0  0  0  0  0  0  0  0
   -2.0481    2.1761   -0.3623 H   0  0  0  0  0  0  0  0  0  0  0  0
    1.0544    1.6461    0.5878 H   0  0  0  0  0  0  0  0  0  0  0  0
    1.3526    0.8740   -1.0513 H   0  0  0  0  0  0  0  0  0  0  0  0
    1.6295   -1.3005   -0.0839 H   0  0  0  0  0  0  0  0  0  0  0  0
    1.2008   -0.6758    1.5954 H   0  0  0  0  0  0  0  0  0  0  0  0
    3.2690   -0.3090    1.5791 H   0  0  0  0  0  0  0  0  0  0  0  0
   -1.6628   -0.6625   -1.6634 H   0  0  0  0  0  0  0  0  0  0  0  0
   -0.1540   -1.4932   -1.0525 H   0  0  0  0  0  0  0  0  0  0  0  0
   -2.6795   -1.2418    0.3755 H   0  0  0  0  0  0  0  0  0  0  0  0
   -1.1749   -1.9841    1.0417 H   0  0  0  0  0  0  0  0  0  0  0  0
  1  2  2  0
  2  3  1  0
  3  4  1  0
  4  5  1  0
  5  6  1  0
  3  7  1  0
  7  8  1  0
  8  9  1  0
  9  3  1  0
  2 10  1  0
  4 11  1  0
  4 12  1  0
  5 13  1  0
  5 14  1  0
  6 15  1  0
  7 16  1  0
  7 17  1  0
  8 18  1  0
  8 19  1  0
M  END
