
     RDKit          3D

 19 19  0  0  0  0  0  0  0  0999 V2000
    2.0818    0.5327   -1.5416 O   0  0  0  0  0  0  0  0  0  0  0  0
    2.0451   -0.0736   -0.5039 C   0  0  0  0  0  0  0  0  0  0  0  0
    0.8469   -0.1302    0.3803 C   0  0  0  0  0  0  0  0  0  0  0  0
    0.0004   -1.3165   -0.0127 C   0  0  0  0  0  0  0  0  0  0  0  0
   -0.4418   -2.0581    1.0570 O   0  0  0  0  0  0  0  0  0  0  0  0
   -1.1325   -0.7046   -0.8107 C   0  0  0  0  0  0  0  0  0  0  0  0
   -1.4176    0.5870   -0.0770 C   0  0  0  0  0  0  0  0  0  0  0  0
    0.0013    1.1035    0.1529 C   0  0  0  0  0  0  0  0  0  0  0  0
    0.0038    1.9623    1.2262 O   0  0  0  0  0  0  0  0  0  0  0  0
    2.9189   -0.6220   -0.1628 H   0  0  0  0  0  0  0  0  0  0  0  0
    1.1404   -0.1664    1.4496 H   0  0  0  0  0  0  0  0  0  0  0  0
    0.5463   -2.0190   -0.6962 H   0  0  0  0  0  0  0  0  0  0  0  0
   -0.4751   -1.5698    1.9095 H   0  0  0  0  0  0  0  0  0  0  0  0
   -1.9949   -1.3577   -0.9124 H   0  0  0  0  0  0  0  0  0  0  0  0
   -0.6818   -0.4039   -1.7947 H   0  0  0  0  0  0  0  0  0  0  0  0
   -1.8963    0.4560    0.8887 H   0  0  0  0  0  0  0  0  0  0  0  0
   -1.9915    1.2460   -0.7476 H   0  0  0  0  0  0  0  0  0  0  0  0
    0.3055    1.6220   -0.7685 H   0  0  0  0  0  0  0  0  0  0  0  0
    0.1412    2.9123    0.9639 H   0  0  0  0  0  0  0  0  0  0  0  0
  1  2  2  0
  2  3  1  0
  3  4  1  0
  4  5  1  0
  4  6  1  0
  6  7  1  0
  7  8  1  0
  8  9  1  0
  8  3  1  0
  2 10  1  0
  3 11  1  0
  4 12  1  0
  5 13  1  0
  6 14  1  0
  6 15  1  0
  7 16  1  0
  7 17  1  0
  8 18  1  0
  9 19  1  0
M  END
