
     RDKit          3D

 21 22  0  0  0  0  0  0  0  0999 V2000
    3.7622    0.5182    0.8679 O   0  0  0  0  0  0  0  0  0  0  0  0
    2.6503    0.7166    0.3847 C   0  0  0  0  0  0  0  0  0  0  0  0
    1.7931   -0.4876    0.2358 C   0  0  0  0  0  0  0  0  0  0  0  0
    0.4960   -0.2223   -0.4570 C   0  0  0  0  0  0  0  0  0  0  0  0
   -0.3734   -1.4591   -0.2633 C   0  0  0  0  0  0  0  0  0  0  0  0
   -1.7912   -0.9514   -0.0951 C   0  0  0  0  0  0  0  0  0  0  0  0
   -1.6609    0.4693    0.3817 C   0  0  0  0  0  0  0  0  0  0  0  0
   -1.3992    1.5249   -0.6290 C   0  0  0  0  0  0  0  0  0  0  0  0
   -0.2834    0.9244    0.1127 C   0  0  0  0  0  0  0  0  0  0  0  0
    2.3675    1.7130    0.0988 H   0  0  0  0  0  0  0  0  0  0  0  0
    1.6024   -0.8700    1.2522 H   0  0  0  0  0  0  0  0  0  0  0  0
    2.3621   -1.2079   -0.4029 H   0  0  0  0  0  0  0  0  0  0  0  0
    0.6856   -0.1347   -1.5477 H   0  0  0  0  0  0  0  0  0  0  0  0
   -0.3192   -2.1105   -1.1598 H   0  0  0  0  0  0  0  0  0  0  0  0
   -0.0774   -2.0107    0.6566 H   0  0  0  0  0  0  0  0  0  0  0  0
   -2.3453   -0.9583   -1.0663 H   0  0  0  0  0  0  0  0  0  0  0  0
   -2.3108   -1.5994    0.6506 H   0  0  0  0  0  0  0  0  0  0  0  0
   -2.1880    0.7198    1.3206 H   0  0  0  0  0  0  0  0  0  0  0  0
   -1.6763    2.5889   -0.4208 H   0  0  0  0  0  0  0  0  0  0  0  0
   -1.5683    1.2428   -1.6961 H   0  0  0  0  0  0  0  0  0  0  0  0
    0.2741    1.5940    0.7844 H   0  0  0  0  0  0  0  0  0  0  0  0
  1  2  2  0
  2  3  1  0
  3  4  1  0
  4  5  1  0
  5  6  1  0
  6  7  1  0
  7  8  1  0
  8  9  1  0
  9  4  1  0
  9  7  1  0
  2 10  1  0
  3 11  1  0
  3 12  1  0
  4 13  1  0
  5 14  1  0
  5 15  1  0
  6 16  1  0
  6 17  1  0
  7 18  1  0
  8 19  1  0
  8 20  1  0
  9 21  1  0
M  END
