
     RDKit          3D

 21 21  0  0  0  0  0  0  0  0999 V2000
   -3.6972    0.8647   -1.0629 O   0  0  0  0  0  0  0  0  0  0  0  0
   -3.1377    1.1482    0.0043 C   0  0  0  0  0  0  0  0  0  0  0  0
   -1.8538    0.4457    0.2686 C   0  0  0  0  0  0  0  0  0  0  0  0
   -1.6699   -0.9694   -0.1538 C   0  0  0  0  0  0  0  0  0  0  0  0
   -1.0100    0.1207   -0.9141 C   0  0  0  0  0  0  0  0  0  0  0  0
    0.4648    0.3223   -0.8969 C   0  0  0  0  0  0  0  0  0  0  0  0
    1.1815   -0.4697    0.1651 C   0  0  0  0  0  0  0  0  0  0  0  0
    2.6657   -0.1414    0.0338 C   0  0  0  0  0  0  0  0  0  0  0  0
    3.4197   -0.8341    0.9848 O   0  0  0  0  0  0  0  0  0  0  0  0
   -3.6016    1.8577    0.6442 H   0  0  0  0  0  0  0  0  0  0  0  0
   -1.3867    0.7251    1.2284 H   0  0  0  0  0  0  0  0  0  0  0  0
   -2.5894   -1.4523   -0.5762 H   0  0  0  0  0  0  0  0  0  0  0  0
   -1.0567   -1.6295    0.4876 H   0  0  0  0  0  0  0  0  0  0  0  0
   -1.4735    0.3225   -1.9202 H   0  0  0  0  0  0  0  0  0  0  0  0
    0.8919    0.1680   -1.8933 H   0  0  0  0  0  0  0  0  0  0  0  0
    0.6479    1.4085   -0.6478 H   0  0  0  0  0  0  0  0  0  0  0  0
    1.0622   -1.5545    0.0023 H   0  0  0  0  0  0  0  0  0  0  0  0
    0.8702   -0.1348    1.1564 H   0  0  0  0  0  0  0  0  0  0  0  0
    2.8553    0.9380    0.1825 H   0  0  0  0  0  0  0  0  0  0  0  0
    3.0502   -0.4830   -0.9616 H   0  0  0  0  0  0  0  0  0  0  0  0
    4.3670   -0.6525    0.7693 H   0  0  0  0  0  0  0  0  0  0  0  0
  1  2  2  0
  2  3  1  0
  3  4  1  0
  4  5  1  0
  5  6  1  0
  6  7  1  0
  7  8  1  0
  8  9  1  0
  5  3  1  0
  2 10  1  0
  3 11  1  0
  4 12  1  0
  4 13  1  0
  5 14  1  0
  6 15  1  0
  6 16  1  0
  7 17  1  0
  7 18  1  0
  8 19  1  0
  8 20  1  0
  9 21  1  0
M  END
