
     RDKit          3D

 17 16  0  0  0  0  0  0  0  0999 V2000
    2.9790    0.7628   -0.9347 O   0  0  0  0  0  0  0  0  0  0  0  0
    2.4647   -0.0023   -0.1494 C   0  0  0  0  0  0  0  0  0  0  0  0
    1.1244   -0.5480   -0.4088 C   0  0  0  0  0  0  0  0  0  0  0  0
    0.0499    0.0450    0.4878 C   0  0  0  0  0  0  0  0  0  0  0  0
   -0.0537    1.4978    0.3226 C   0  0  0  0  0  0  0  0  0  0  0  0
    0.6251    2.2354    1.0290 O   0  0  0  0  0  0  0  0  0  0  0  0
   -1.2245   -0.6966    0.0953 C   0  0  0  0  0  0  0  0  0  0  0  0
   -2.3831   -0.2470    0.8866 C   0  0  0  0  0  0  0  0  0  0  0  0
   -3.4909   -0.7073    0.7723 O   0  0  0  0  0  0  0  0  0  0  0  0
    2.9873   -0.2858    0.7472 H   0  0  0  0  0  0  0  0  0  0  0  0
    1.1711   -1.6735   -0.2993 H   0  0  0  0  0  0  0  0  0  0  0  0
    0.7787   -0.4004   -1.4606 H   0  0  0  0  0  0  0  0  0  0  0  0
    0.3120   -0.1714    1.5345 H   0  0  0  0  0  0  0  0  0  0  0  0
   -0.7026    2.0063   -0.3980 H   0  0  0  0  0  0  0  0  0  0  0  0
   -1.0855   -1.7746    0.3077 H   0  0  0  0  0  0  0  0  0  0  0  0
   -1.3604   -0.5990   -1.0025 H   0  0  0  0  0  0  0  0  0  0  0  0
   -2.1917    0.5586    1.6177 H   0  0  0  0  0  0  0  0  0  0  0  0
  1  2  2  0
  2  3  1  0
  3  4  1  0
  4  5  1  0
  5  6  2  0
  4  7  1  0
  7  8  1  0
  8  9  2  0
  2 10  1  0
  3 11  1  0
  3 12  1  0
  4 13  1  0
  5 14  1  0
  7 15  1  0
  7 16  1  0
  8 17  1  0
M  END
