
     RDKit          3D

 17 18  0  0  0  0  0  0  0  0999 V2000
   -2.4967   -1.5761   -0.5705 O   0  0  0  0  0  0  0  0  0  0  0  0
   -1.5347   -1.2658    0.1084 C   0  0  0  0  0  0  0  0  0  0  0  0
   -1.1238    0.1431    0.1316 C   0  0  0  0  0  0  0  0  0  0  0  0
   -0.1685    0.5498   -0.9862 C   0  0  0  0  0  0  0  0  0  0  0  0
    0.4829    1.4641    0.0376 C   0  0  0  0  0  0  0  0  0  0  0  0
    0.0487    0.4178    1.0734 C   0  0  0  0  0  0  0  0  0  0  0  0
    0.9476   -0.6226    1.0502 O   0  0  0  0  0  0  0  0  0  0  0  0
    1.4668   -0.8653   -0.1952 C   0  0  0  0  0  0  0  0  0  0  0  0
    0.6435   -0.5403   -1.2448 O   0  0  0  0  0  0  0  0  0  0  0  0
   -1.0419   -2.0712    0.6577 H   0  0  0  0  0  0  0  0  0  0  0  0
   -1.9291    0.8923    0.2501 H   0  0  0  0  0  0  0  0  0  0  0  0
   -0.6178    1.0285   -1.8476 H   0  0  0  0  0  0  0  0  0  0  0  0
   -0.1322    2.3886    0.1626 H   0  0  0  0  0  0  0  0  0  0  0  0
    1.5569    1.6031   -0.0568 H   0  0  0  0  0  0  0  0  0  0  0  0
   -0.2102    0.8184    2.0444 H   0  0  0  0  0  0  0  0  0  0  0  0
    1.6397   -1.9801   -0.2628 H   0  0  0  0  0  0  0  0  0  0  0  0
    2.4688   -0.3844   -0.3521 H   0  0  0  0  0  0  0  0  0  0  0  0
  1  2  2  0
  2  3  1  0
  3  4  1  0
  4  5  1  0
  5  6  1  0
  6  7  1  0
  7  8  1  0
  8  9  1  0
  6  3  1  0
  9  4  1  0
  2 10  1  0
  3 11  1  0
  4 12  1  0
  5 13  1  0
  5 14  1  0
  6 15  1  0
  8 16  1  0
  8 17  1  0
M  END
