
     RDKit          3D

 19 20  0  0  0  0  0  0  0  0999 V2000
   -0.6504    2.8075   -0.0820 O   0  0  0  0  0  0  0  0  0  0  0  0
   -0.8816    1.7158   -0.5716 C   0  0  0  0  0  0  0  0  0  0  0  0
   -0.9239    0.5447    0.3017 C   0  0  0  0  0  0  0  0  0  0  0  0
   -1.5403   -0.6877   -0.2395 C   0  0  0  0  0  0  0  0  0  0  0  0
   -0.4555   -1.5824    0.3032 C   0  0  0  0  0  0  0  0  0  0  0  0
    0.3633   -0.3162    0.4368 C   0  0  0  0  0  0  0  0  0  0  0  0
    1.4133   -0.0119   -0.5850 C   0  0  0  0  0  0  0  0  0  0  0  0
    2.5104   -0.8329   -0.3714 O   0  0  0  0  0  0  0  0  0  0  0  0
   -0.0498    0.5879    1.4937 C   0  0  0  0  0  0  0  0  0  0  0  0
   -1.0435    1.6842   -1.6406 H   0  0  0  0  0  0  0  0  0  0  0  0
   -2.5677   -0.9339    0.0528 H   0  0  0  0  0  0  0  0  0  0  0  0
   -1.4674   -0.6920   -1.3674 H   0  0  0  0  0  0  0  0  0  0  0  0
   -0.0568   -2.3290   -0.4123 H   0  0  0  0  0  0  0  0  0  0  0  0
   -0.7858   -2.0018    1.2834 H   0  0  0  0  0  0  0  0  0  0  0  0
    0.9862   -0.3254   -1.5842 H   0  0  0  0  0  0  0  0  0  0  0  0
    1.6483    1.0478   -0.6810 H   0  0  0  0  0  0  0  0  0  0  0  0
    3.3291   -0.2602   -0.4616 H   0  0  0  0  0  0  0  0  0  0  0  0
   -0.3845    0.1073    2.4582 H   0  0  0  0  0  0  0  0  0  0  0  0
    0.5566    1.4781    1.6666 H   0  0  0  0  0  0  0  0  0  0  0  0
  1  2  2  0
  2  3  1  0
  3  4  1  0
  4  5  1  0
  5  6  1  0
  6  7  1  0
  7  8  1  0
  6  9  1  0
  6  3  1  0
  9  3  1  0
  2 10  1  0
  4 11  1  0
  4 12  1  0
  5 13  1  0
  5 14  1  0
  7 15  1  0
  7 16  1  0
  8 17  1  0
  9 18  1  0
  9 19  1  0
M  END
