
     RDKit          3D

 17 16  0  0  0  0  0  0  0  0999 V2000
   -3.2598   -0.3947    1.1591 O   0  0  0  0  0  0  0  0  0  0  0  0
   -2.2841   -0.4920    0.4585 C   0  0  0  0  0  0  0  0  0  0  0  0
   -2.0011    0.5631   -0.5529 C   0  0  0  0  0  0  0  0  0  0  0  0
   -0.7201    0.2228   -1.3145 C   0  0  0  0  0  0  0  0  0  0  0  0
   -0.8939   -1.0035   -1.9514 O   0  0  0  0  0  0  0  0  0  0  0  0
    0.3989    0.2076   -0.3730 C   0  0  0  0  0  0  0  0  0  0  0  0
    1.3133    0.2059    0.4198 C   0  0  0  0  0  0  0  0  0  0  0  0
    2.4085    0.2238    1.3894 C   0  0  0  0  0  0  0  0  0  0  0  0
    3.5817   -0.3114    0.8370 O   0  0  0  0  0  0  0  0  0  0  0  0
   -1.6269   -1.3480    0.5764 H   0  0  0  0  0  0  0  0  0  0  0  0
   -2.8605    0.6057   -1.2298 H   0  0  0  0  0  0  0  0  0  0  0  0
   -1.8780    1.5333   -0.0317 H   0  0  0  0  0  0  0  0  0  0  0  0
   -0.5645    1.0252   -2.0709 H   0  0  0  0  0  0  0  0  0  0  0  0
   -0.3397   -1.6659   -1.4372 H   0  0  0  0  0  0  0  0  0  0  0  0
    2.1720   -0.4137    2.2741 H   0  0  0  0  0  0  0  0  0  0  0  0
    2.5807    1.2801    1.6680 H   0  0  0  0  0  0  0  0  0  0  0  0
    3.9735    0.2930    0.1792 H   0  0  0  0  0  0  0  0  0  0  0  0
  1  2  2  0
  2  3  1  0
  3  4  1  0
  4  5  1  0
  4  6  1  0
  6  7  3  0
  7  8  1  0
  8  9  1  0
  2 10  1  0
  3 11  1  0
  3 12  1  0
  4 13  1  0
  5 14  1  0
  8 15  1  0
  8 16  1  0
  9 17  1  0
M  END
