
     RDKit          3D

 17 19  0  0  0  0  0  0  0  0999 V2000
    2.9806   -0.8667    0.4878 O   0  0  0  0  0  0  0  0  0  0  0  0
    2.2847    0.1091    0.2772 C   0  0  0  0  0  0  0  0  0  0  0  0
    0.8277   -0.0103    0.2396 C   0  0  0  0  0  0  0  0  0  0  0  0
   -0.0230    1.2318    0.2691 C   0  0  0  0  0  0  0  0  0  0  0  0
   -0.9864    0.5340   -0.6658 C   0  0  0  0  0  0  0  0  0  0  0  0
   -1.8816   -0.3882    0.1554 C   0  0  0  0  0  0  0  0  0  0  0  0
   -1.1128   -1.4177    0.6107 O   0  0  0  0  0  0  0  0  0  0  0  0
    0.1526   -1.3439    0.0800 C   0  0  0  0  0  0  0  0  0  0  0  0
    0.1175   -0.3989   -1.0241 C   0  0  0  0  0  0  0  0  0  0  0  0
    2.7369    1.0729    0.1159 H   0  0  0  0  0  0  0  0  0  0  0  0
   -0.4707    1.4737    1.2279 H   0  0  0  0  0  0  0  0  0  0  0  0
    0.4364    2.1045   -0.2796 H   0  0  0  0  0  0  0  0  0  0  0  0
   -1.4618    1.1226   -1.4336 H   0  0  0  0  0  0  0  0  0  0  0  0
   -2.7053   -0.8144   -0.4755 H   0  0  0  0  0  0  0  0  0  0  0  0
   -2.3293    0.2246    0.9652 H   0  0  0  0  0  0  0  0  0  0  0  0
    0.7710   -2.2310   -0.0224 H   0  0  0  0  0  0  0  0  0  0  0  0
    0.6635   -0.4022   -1.9379 H   0  0  0  0  0  0  0  0  0  0  0  0
  1  2  2  0
  2  3  1  0
  3  4  1  0
  4  5  1  0
  5  6  1  0
  6  7  1  0
  7  8  1  0
  8  9  1  0
  8  3  1  0
  9  3  1  0
  9  5  1  0
  2 10  1  0
  4 11  1  0
  4 12  1  0
  5 13  1  0
  6 14  1  0
  6 15  1  0
  8 16  1  0
  9 17  1  0
M  END
