
     RDKit          3D

 17 18  0  0  0  0  0  0  0  0999 V2000
    1.6933    2.2264    0.3625 O   0  0  0  0  0  0  0  0  0  0  0  0
    1.5126    1.0761    0.7175 C   0  0  0  0  0  0  0  0  0  0  0  0
    0.9760    0.1323   -0.2773 C   0  0  0  0  0  0  0  0  0  0  0  0
    0.5262   -1.1775    0.3580 C   0  0  0  0  0  0  0  0  0  0  0  0
   -0.8166   -1.3779   -0.3177 C   0  0  0  0  0  0  0  0  0  0  0  0
   -1.7513   -0.6331    0.3875 O   0  0  0  0  0  0  0  0  0  0  0  0
   -1.4177    0.7058    0.1428 C   0  0  0  0  0  0  0  0  0  0  0  0
   -0.3300    0.5934   -0.8899 C   0  0  0  0  0  0  0  0  0  0  0  0
   -0.7221   -0.6193   -1.5113 O   0  0  0  0  0  0  0  0  0  0  0  0
    1.7551    0.7979    1.7511 H   0  0  0  0  0  0  0  0  0  0  0  0
    1.6768   -0.1196   -1.0898 H   0  0  0  0  0  0  0  0  0  0  0  0
    0.3719   -1.0052    1.4599 H   0  0  0  0  0  0  0  0  0  0  0  0
    1.2255   -1.9942    0.1999 H   0  0  0  0  0  0  0  0  0  0  0  0
   -1.0868   -2.4047   -0.4865 H   0  0  0  0  0  0  0  0  0  0  0  0
   -1.0725    1.1997    1.0754 H   0  0  0  0  0  0  0  0  0  0  0  0
   -2.2942    1.1820   -0.3069 H   0  0  0  0  0  0  0  0  0  0  0  0
   -0.2460    1.4179   -1.5751 H   0  0  0  0  0  0  0  0  0  0  0  0
  1  2  2  0
  2  3  1  0
  3  4  1  0
  4  5  1  0
  5  6  1  0
  6  7  1  0
  7  8  1  0
  8  9  1  0
  8  3  1  0
  9  5  1  0
  2 10  1  0
  3 11  1  0
  4 12  1  0
  4 13  1  0
  5 14  1  0
  7 15  1  0
  7 16  1  0
  8 17  1  0
M  END
