
     RDKit          3D

 15 15  0  0  0  0  0  0  0  0999 V2000
    2.1912   -0.3576   -0.9927 O   0  0  0  0  0  0  0  0  0  0  0  0
    1.6800   -0.8096    0.0300 C   0  0  0  0  0  0  0  0  0  0  0  0
    0.3223   -0.2783    0.3621 C   0  0  0  0  0  0  0  0  0  0  0  0
   -0.1260   -0.8700    1.5284 O   0  0  0  0  0  0  0  0  0  0  0  0
    0.3273    1.2227    0.5066 C   0  0  0  0  0  0  0  0  0  0  0  0
   -1.0072    1.5633    0.1903 O   0  0  0  0  0  0  0  0  0  0  0  0
   -1.5921    0.6161   -0.6058 C   0  0  0  0  0  0  0  0  0  0  0  0
   -2.7468    0.6620   -1.0935 O   0  0  0  0  0  0  0  0  0  0  0  0
   -0.6249   -0.4757   -0.7933 C   0  0  0  0  0  0  0  0  0  0  0  0
    2.1526   -1.5383    0.6631 H   0  0  0  0  0  0  0  0  0  0  0  0
   -1.0448   -1.1779    1.5025 H   0  0  0  0  0  0  0  0  0  0  0  0
    0.9652    1.6831   -0.3008 H   0  0  0  0  0  0  0  0  0  0  0  0
    0.6352    1.5103    1.5129 H   0  0  0  0  0  0  0  0  0  0  0  0
   -0.0504   -0.2681   -1.7202 H   0  0  0  0  0  0  0  0  0  0  0  0
   -1.0816   -1.4819   -0.7896 H   0  0  0  0  0  0  0  0  0  0  0  0
  1  2  2  0
  2  3  1  0
  3  4  1  0
  3  5  1  0
  5  6  1  0
  6  7  1  0
  7  8  2  0
  7  9  1  0
  9  3  1  0
  2 10  1  0
  4 11  1  0
  5 12  1  0
  5 13  1  0
  9 14  1  0
  9 15  1  0
M  END
