
     RDKit          3D

 17 18  0  0  0  0  0  0  0  0999 V2000
   -0.5405    2.9984    0.3357 O   0  0  0  0  0  0  0  0  0  0  0  0
   -0.5563    1.8758   -0.1150 C   0  0  0  0  0  0  0  0  0  0  0  0
   -0.5564    0.7366    0.8368 C   0  0  0  0  0  0  0  0  0  0  0  0
   -1.2827   -0.4050    0.3478 C   0  0  0  0  0  0  0  0  0  0  0  0
   -0.8462   -1.6904   -0.2494 C   0  0  0  0  0  0  0  0  0  0  0  0
   -0.0622   -1.7703    0.9035 O   0  0  0  0  0  0  0  0  0  0  0  0
    0.2294   -0.4593    0.6526 C   0  0  0  0  0  0  0  0  0  0  0  0
    1.2953   -0.2792   -0.3351 C   0  0  0  0  0  0  0  0  0  0  0  0
    1.5543    1.1095   -0.5089 O   0  0  0  0  0  0  0  0  0  0  0  0
   -0.5693    1.7940   -1.1936 H   0  0  0  0  0  0  0  0  0  0  0  0
   -0.5436    1.1065    1.9097 H   0  0  0  0  0  0  0  0  0  0  0  0
   -1.9941   -0.7074    1.1974 H   0  0  0  0  0  0  0  0  0  0  0  0
   -1.6678   -2.4681   -0.2705 H   0  0  0  0  0  0  0  0  0  0  0  0
   -0.3701   -1.7399   -1.2151 H   0  0  0  0  0  0  0  0  0  0  0  0
    1.1808   -0.6366   -1.3500 H   0  0  0  0  0  0  0  0  0  0  0  0
    2.3052   -0.6486    0.0376 H   0  0  0  0  0  0  0  0  0  0  0  0
    2.4240    1.1840   -0.9836 H   0  0  0  0  0  0  0  0  0  0  0  0
  1  2  2  0
  2  3  1  0
  3  4  1  0
  4  5  1  0
  5  6  1  0
  6  7  1  0
  7  8  1  0
  8  9  1  0
  7  3  1  0
  7  4  1  0
  2 10  1  0
  3 11  1  0
  4 12  1  0
  5 13  1  0
  5 14  1  0
  8 15  1  0
  8 16  1  0
  9 17  1  0
M  END
