
     RDKit          3D

 19 20  0  0  0  0  0  0  0  0999 V2000
    2.6466   -0.3791   -1.2899 O   0  0  0  0  0  0  0  0  0  0  0  0
    2.0599    0.0052   -0.2839 C   0  0  0  0  0  0  0  0  0  0  0  0
    0.6679   -0.1226   -0.0931 C   0  0  0  0  0  0  0  0  0  0  0  0
    0.0805   -1.2451    0.7075 C   0  0  0  0  0  0  0  0  0  0  0  0
   -1.4146   -0.8807    0.5951 C   0  0  0  0  0  0  0  0  0  0  0  0
   -1.2975    0.3209   -0.2885 C   0  0  0  0  0  0  0  0  0  0  0  0
   -0.2640   -0.0969   -1.3027 C   0  0  0  0  0  0  0  0  0  0  0  0
   -0.1438    1.0678    0.3962 C   0  0  0  0  0  0  0  0  0  0  0  0
    0.1792    2.2710   -0.2099 O   0  0  0  0  0  0  0  0  0  0  0  0
    2.6975    0.4640    0.4746 H   0  0  0  0  0  0  0  0  0  0  0  0
    0.2074   -2.1726    0.1502 H   0  0  0  0  0  0  0  0  0  0  0  0
    0.4048   -1.2661    1.7442 H   0  0  0  0  0  0  0  0  0  0  0  0
   -1.7863   -0.5433    1.5851 H   0  0  0  0  0  0  0  0  0  0  0  0
   -1.9975   -1.7014    0.1702 H   0  0  0  0  0  0  0  0  0  0  0  0
   -2.1437    0.8773   -0.5826 H   0  0  0  0  0  0  0  0  0  0  0  0
   -0.3556   -1.1321   -1.6876 H   0  0  0  0  0  0  0  0  0  0  0  0
   -0.0152    0.6565   -2.0560 H   0  0  0  0  0  0  0  0  0  0  0  0
   -0.2044    1.0746    1.4978 H   0  0  0  0  0  0  0  0  0  0  0  0
    0.6789    2.8026    0.4734 H   0  0  0  0  0  0  0  0  0  0  0  0
  1  2  2  0
  2  3  1  0
  3  4  1  0
  4  5  1  0
  5  6  1  0
  6  7  1  0
  6  8  1  0
  8  9  1  0
  7  3  1  0
  8  3  1  0
  2 10  1  0
  4 11  1  0
  4 12  1  0
  5 13  1  0
  5 14  1  0
  6 15  1  0
  7 16  1  0
  7 17  1  0
  8 18  1  0
  9 19  1  0
M  END
