
     RDKit          3D

 17 17  0  0  0  0  0  0  0  0999 V2000
    2.5628   -1.1584    0.7701 O   0  0  0  0  0  0  0  0  0  0  0  0
    1.5273   -1.1796    0.1289 C   0  0  0  0  0  0  0  0  0  0  0  0
    0.4967   -0.1886    0.4493 C   0  0  0  0  0  0  0  0  0  0  0  0
    0.8290    1.1643   -0.1942 C   0  0  0  0  0  0  0  0  0  0  0  0
   -0.5576    1.7645   -0.2949 C   0  0  0  0  0  0  0  0  0  0  0  0
   -1.4662    0.7664   -0.0851 O   0  0  0  0  0  0  0  0  0  0  0  0
   -0.8197   -0.4562   -0.2434 C   0  0  0  0  0  0  0  0  0  0  0  0
   -1.5802   -1.5605    0.3690 C   0  0  0  0  0  0  0  0  0  0  0  0
   -1.1194   -2.6858    0.2988 O   0  0  0  0  0  0  0  0  0  0  0  0
    1.4191   -1.9284   -0.6453 H   0  0  0  0  0  0  0  0  0  0  0  0
    0.3416   -0.0911    1.5320 H   0  0  0  0  0  0  0  0  0  0  0  0
    1.5207    1.7474    0.4099 H   0  0  0  0  0  0  0  0  0  0  0  0
    1.2166    0.9290   -1.2174 H   0  0  0  0  0  0  0  0  0  0  0  0
   -0.6373    2.2336   -1.3133 H   0  0  0  0  0  0  0  0  0  0  0  0
   -0.5963    2.5639    0.5005 H   0  0  0  0  0  0  0  0  0  0  0  0
   -0.6213   -0.5886   -1.3213 H   0  0  0  0  0  0  0  0  0  0  0  0
   -2.5159   -1.3319    0.8565 H   0  0  0  0  0  0  0  0  0  0  0  0
  1  2  2  0
  2  3  1  0
  3  4  1  0
  4  5  1  0
  5  6  1  0
  6  7  1  0
  7  8  1  0
  8  9  2  0
  7  3  1  0
  2 10  1  0
  3 11  1  0
  4 12  1  0
  4 13  1  0
  5 14  1  0
  5 15  1  0
  7 16  1  0
  8 17  1  0
M  END
