
     RDKit          3D

 17 18  0  0  0  0  0  0  0  0999 V2000
    2.6367   -0.9408    1.0575 O   0  0  0  0  0  0  0  0  0  0  0  0
    2.3594   -0.4178   -0.0052 C   0  0  0  0  0  0  0  0  0  0  0  0
    0.9251   -0.1598   -0.2950 C   0  0  0  0  0  0  0  0  0  0  0  0
   -0.0697   -1.1335    0.2388 C   0  0  0  0  0  0  0  0  0  0  0  0
   -1.4654   -0.7666   -0.2116 C   0  0  0  0  0  0  0  0  0  0  0  0
   -1.7346    0.6073    0.3006 C   0  0  0  0  0  0  0  0  0  0  0  0
   -0.8096    1.5415    0.2231 C   0  0  0  0  0  0  0  0  0  0  0  0
    0.5115    1.2325   -0.3764 C   0  0  0  0  0  0  0  0  0  0  0  0
    0.5795    0.4382   -1.5049 O   0  0  0  0  0  0  0  0  0  0  0  0
    3.1647   -0.1757   -0.6660 H   0  0  0  0  0  0  0  0  0  0  0  0
   -0.1024   -1.1540    1.3589 H   0  0  0  0  0  0  0  0  0  0  0  0
    0.1680   -2.1607   -0.0824 H   0  0  0  0  0  0  0  0  0  0  0  0
   -1.6042   -0.8475   -1.3046 H   0  0  0  0  0  0  0  0  0  0  0  0
   -2.1818   -1.4916    0.2692 H   0  0  0  0  0  0  0  0  0  0  0  0
   -2.6894    0.8638    0.7437 H   0  0  0  0  0  0  0  0  0  0  0  0
   -0.9847    2.5477    0.5898 H   0  0  0  0  0  0  0  0  0  0  0  0
    1.2971    2.0171   -0.3354 H   0  0  0  0  0  0  0  0  0  0  0  0
  1  2  2  0
  2  3  1  0
  3  4  1  0
  4  5  1  0
  5  6  1  0
  6  7  2  0
  7  8  1  0
  8  9  1  0
  8  3  1  0
  9  3  1  0
  2 10  1  0
  4 11  1  0
  4 12  1  0
  5 13  1  0
  5 14  1  0
  6 15  1  0
  7 16  1  0
  8 17  1  0
M  END
