
     RDKit          3D

 15 17  0  0  0  0  0  0  0  0999 V2000
   -3.0094   -1.1903   -0.4147 O   0  0  0  0  0  0  0  0  0  0  0  0
   -2.3692   -0.3076    0.1269 C   0  0  0  0  0  0  0  0  0  0  0  0
   -1.0381    0.0533   -0.3757 C   0  0  0  0  0  0  0  0  0  0  0  0
   -0.1604    0.9919    0.4078 C   0  0  0  0  0  0  0  0  0  0  0  0
    0.9521    0.0576    0.2953 C   0  0  0  0  0  0  0  0  0  0  0  0
    2.2843    0.0883    0.5445 C   0  0  0  0  0  0  0  0  0  0  0  0
    1.9237    0.5260   -0.7329 O   0  0  0  0  0  0  0  0  0  0  0  0
    0.0858   -0.9883   -0.2870 C   0  0  0  0  0  0  0  0  0  0  0  0
   -0.5673   -0.6352   -1.4564 O   0  0  0  0  0  0  0  0  0  0  0  0
   -2.8461    0.1733    0.9812 H   0  0  0  0  0  0  0  0  0  0  0  0
   -0.6192    1.1526    1.4228 H   0  0  0  0  0  0  0  0  0  0  0  0
   -0.0874    1.9840   -0.0825 H   0  0  0  0  0  0  0  0  0  0  0  0
    2.9023   -0.8538    0.4996 H   0  0  0  0  0  0  0  0  0  0  0  0
    2.7633    0.8329    1.2185 H   0  0  0  0  0  0  0  0  0  0  0  0
   -0.2144   -1.8847    0.2761 H   0  0  0  0  0  0  0  0  0  0  0  0
  1  2  2  0
  2  3  1  0
  3  4  1  0
  4  5  1  0
  5  6  1  0
  6  7  1  0
  5  8  1  0
  8  9  1  0
  8  3  1  0
  9  3  1  0
  7  5  1  0
  2 10  1  0
  4 11  1  0
  4 12  1  0
  6 13  1  0
  6 14  1  0
  8 15  1  0
M  END
