
     RDKit          3D

 19 21  0  0  0  0  0  0  0  0999 V2000
    3.8636    0.2272    0.8386 O   0  0  0  0  0  0  0  0  0  0  0  0
    2.7940    0.3987    0.2739 C   0  0  0  0  0  0  0  0  0  0  0  0
    1.9769   -0.7376   -0.2259 C   0  0  0  0  0  0  0  0  0  0  0  0
    0.7270   -0.1246   -0.8633 C   0  0  0  0  0  0  0  0  0  0  0  0
   -0.1768    0.6880   -0.0819 C   0  0  0  0  0  0  0  0  0  0  0  0
   -1.6647    0.8147   -0.2174 C   0  0  0  0  0  0  0  0  0  0  0  0
   -2.6918    0.2142    0.5975 C   0  0  0  0  0  0  0  0  0  0  0  0
   -1.5092   -0.5946    0.4865 C   0  0  0  0  0  0  0  0  0  0  0  0
   -0.5701   -0.7240   -0.6767 C   0  0  0  0  0  0  0  0  0  0  0  0
    2.4823    1.4298    0.1623 H   0  0  0  0  0  0  0  0  0  0  0  0
    1.7208   -1.3633    0.6500 H   0  0  0  0  0  0  0  0  0  0  0  0
    2.5313   -1.2894   -1.0000 H   0  0  0  0  0  0  0  0  0  0  0  0
    1.0364    0.3429   -1.8497 H   0  0  0  0  0  0  0  0  0  0  0  0
    0.0827    0.6784    1.0185 H   0  0  0  0  0  0  0  0  0  0  0  0
   -1.9218    0.7649   -1.3189 H   0  0  0  0  0  0  0  0  0  0  0  0
   -3.6342   -0.2294    0.1607 H   0  0  0  0  0  0  0  0  0  0  0  0
   -2.9564    0.7769    1.5376 H   0  0  0  0  0  0  0  0  0  0  0  0
   -0.8954   -0.5846    1.4365 H   0  0  0  0  0  0  0  0  0  0  0  0
   -1.1945   -0.6881   -1.6195 H   0  0  0  0  0  0  0  0  0  0  0  0
  1  2  2  0
  2  3  1  0
  3  4  1  0
  4  5  1  0
  5  6  1  0
  6  7  1  0
  7  8  1  0
  8  9  1  0
  9  4  1  0
  9  5  1  0
  8  6  1  0
  2 10  1  0
  3 11  1  0
  3 12  1  0
  4 13  1  0
  5 14  1  0
  6 15  1  0
  7 16  1  0
  7 17  1  0
  8 18  1  0
  9 19  1  0
M  END
