
     RDKit          3D

 15 16  0  0  0  0  0  0  0  0999 V2000
   -0.9722   -2.1955    1.0221 O   0  0  0  0  0  0  0  0  0  0  0  0
   -1.3131   -1.0153    1.0791 C   0  0  0  0  0  0  0  0  0  0  0  0
   -0.4147   -0.0191    0.4754 C   0  0  0  0  0  0  0  0  0  0  0  0
   -0.9125    1.1848   -0.2080 C   0  0  0  0  0  0  0  0  0  0  0  0
   -0.3606    0.0505   -1.0060 C   0  0  0  0  0  0  0  0  0  0  0  0
    1.0644   -0.0579   -1.3144 C   0  0  0  0  0  0  0  0  0  0  0  0
    1.8186   -0.0603   -0.2276 C   0  0  0  0  0  0  0  0  0  0  0  0
    0.9858    0.0476    0.9640 C   0  0  0  0  0  0  0  0  0  0  0  0
    1.3268    0.1715    2.1648 O   0  0  0  0  0  0  0  0  0  0  0  0
   -2.2426   -0.7757    1.5635 H   0  0  0  0  0  0  0  0  0  0  0  0
   -0.2779    2.0970   -0.2041 H   0  0  0  0  0  0  0  0  0  0  0  0
   -1.9885    1.3457   -0.2267 H   0  0  0  0  0  0  0  0  0  0  0  0
   -1.1053   -0.5143   -1.6261 H   0  0  0  0  0  0  0  0  0  0  0  0
    1.4822   -0.1295   -2.3083 H   0  0  0  0  0  0  0  0  0  0  0  0
    2.9098   -0.1294   -0.1476 H   0  0  0  0  0  0  0  0  0  0  0  0
  1  2  2  0
  2  3  1  0
  3  4  1  0
  4  5  1  0
  5  6  1  0
  6  7  2  0
  7  8  1  0
  8  9  2  0
  5  3  1  0
  8  3  1  0
  2 10  1  0
  4 11  1  0
  4 12  1  0
  5 13  1  0
  6 14  1  0
  7 15  1  0
M  END
