
     RDKit          3D

 18 18  0  0  0  0  0  0  0  0999 V2000
    2.8763    1.4111   -0.4310 O   0  0  0  0  0  0  0  0  0  0  0  0
    2.1867    0.9468    0.4635 C   0  0  0  0  0  0  0  0  0  0  0  0
    1.6650   -0.4494    0.3179 C   0  0  0  0  0  0  0  0  0  0  0  0
    0.4248   -0.3739   -0.5610 C   0  0  0  0  0  0  0  0  0  0  0  0
   -0.0534   -1.6712   -0.6904 O   0  0  0  0  0  0  0  0  0  0  0  0
   -0.6371    0.4743    0.0321 C   0  0  0  0  0  0  0  0  0  0  0  0
   -1.9332    0.7267   -0.5857 C   0  0  0  0  0  0  0  0  0  0  0  0
   -1.8771   -0.2868    0.5355 C   0  0  0  0  0  0  0  0  0  0  0  0
    1.9391    1.5041    1.3536 H   0  0  0  0  0  0  0  0  0  0  0  0
    1.4415   -0.9260    1.2826 H   0  0  0  0  0  0  0  0  0  0  0  0
    2.4376   -1.0689   -0.1888 H   0  0  0  0  0  0  0  0  0  0  0  0
    0.7229   -0.0565   -1.5816 H   0  0  0  0  0  0  0  0  0  0  0  0
   -0.0584   -2.1490    0.1725 H   0  0  0  0  0  0  0  0  0  0  0  0
   -0.2350    1.2682    0.7046 H   0  0  0  0  0  0  0  0  0  0  0  0
   -2.2282    0.3610   -1.5911 H   0  0  0  0  0  0  0  0  0  0  0  0
   -2.4762    1.6573   -0.3084 H   0  0  0  0  0  0  0  0  0  0  0  0
   -2.2102   -0.0236    1.5469 H   0  0  0  0  0  0  0  0  0  0  0  0
   -1.9850   -1.3443    0.2159 H   0  0  0  0  0  0  0  0  0  0  0  0
  1  2  2  0
  2  3  1  0
  3  4  1  0
  4  5  1  0
  4  6  1  0
  6  7  1  0
  7  8  1  0
  8  6  1  0
  2  9  1  0
  3 10  1  0
  3 11  1  0
  4 12  1  0
  5 13  1  0
  6 14  1  0
  7 15  1  0
  7 16  1  0
  8 17  1  0
  8 18  1  0
M  END
