
     RDKit          3D

 19 19  0  0  0  0  0  0  0  0999 V2000
   -1.6942   -2.3589   -0.9482 O   0  0  0  0  0  0  0  0  0  0  0  0
   -1.1147   -1.6594   -0.1592 C   0  0  0  0  0  0  0  0  0  0  0  0
   -0.7861   -0.2220   -0.4072 C   0  0  0  0  0  0  0  0  0  0  0  0
   -1.8678    0.5938    0.2481 C   0  0  0  0  0  0  0  0  0  0  0  0
   -1.6267    1.9454    0.0574 O   0  0  0  0  0  0  0  0  0  0  0  0
    0.5606    0.0258    0.2411 C   0  0  0  0  0  0  0  0  0  0  0  0
    1.6797   -0.8447   -0.3204 C   0  0  0  0  0  0  0  0  0  0  0  0
    1.6500    0.6806   -0.4820 C   0  0  0  0  0  0  0  0  0  0  0  0
    2.6385    1.3277    0.2541 O   0  0  0  0  0  0  0  0  0  0  0  0
   -0.8111   -2.0935    0.7891 H   0  0  0  0  0  0  0  0  0  0  0  0
   -0.7693   -0.0195   -1.4950 H   0  0  0  0  0  0  0  0  0  0  0  0
   -2.8244    0.3220   -0.2564 H   0  0  0  0  0  0  0  0  0  0  0  0
   -1.9462    0.3456    1.3238 H   0  0  0  0  0  0  0  0  0  0  0  0
   -1.5830    2.3748    0.9354 H   0  0  0  0  0  0  0  0  0  0  0  0
    0.5038    0.1680    1.3303 H   0  0  0  0  0  0  0  0  0  0  0  0
    2.3400   -1.2725    0.4499 H   0  0  0  0  0  0  0  0  0  0  0  0
    1.4962   -1.3793   -1.2712 H   0  0  0  0  0  0  0  0  0  0  0  0
    1.4855    1.1003   -1.4850 H   0  0  0  0  0  0  0  0  0  0  0  0
    2.6692    0.9658    1.1954 H   0  0  0  0  0  0  0  0  0  0  0  0
  1  2  2  0
  2  3  1  0
  3  4  1  0
  4  5  1  0
  3  6  1  0
  6  7  1  0
  7  8  1  0
  8  9  1  0
  8  6  1  0
  2 10  1  0
  3 11  1  0
  4 12  1  0
  4 13  1  0
  5 14  1  0
  6 15  1  0
  7 16  1  0
  7 17  1  0
  8 18  1  0
  9 19  1  0
M  END
