
     RDKit          3D

 12 12  0  0  0  0  0  0  0  0999 V2000
    2.0633   -1.3495   -0.2790 O   0  0  0  0  0  0  0  0  0  0  0  0
    1.4220   -0.4529    0.2428 C   0  0  0  0  0  0  0  0  0  0  0  0
    0.1217   -0.0908   -0.3359 C   0  0  0  0  0  0  0  0  0  0  0  0
   -0.2876   -0.7950   -1.4382 O   0  0  0  0  0  0  0  0  0  0  0  0
   -0.9941    0.0013    0.6807 C   0  0  0  0  0  0  0  0  0  0  0  0
   -0.4977    1.2962    0.9580 O   0  0  0  0  0  0  0  0  0  0  0  0
   -0.0892    1.3676   -0.3660 C   0  0  0  0  0  0  0  0  0  0  0  0
    0.0087    2.3512   -1.1447 O   0  0  0  0  0  0  0  0  0  0  0  0
    1.7767    0.0791    1.1098 H   0  0  0  0  0  0  0  0  0  0  0  0
   -0.6914   -1.6685   -1.2102 H   0  0  0  0  0  0  0  0  0  0  0  0
   -0.8358   -0.6894    1.5343 H   0  0  0  0  0  0  0  0  0  0  0  0
   -1.9967   -0.0494    0.2483 H   0  0  0  0  0  0  0  0  0  0  0  0
  1  2  2  0
  2  3  1  0
  3  4  1  0
  3  5  1  0
  5  6  1  0
  6  7  1  0
  7  8  2  0
  7  3  1  0
  2  9  1  0
  4 10  1  0
  5 11  1  0
  5 12  1  0
M  END
