
     RDKit          3D

 19 19  0  0  0  0  0  0  0  0999 V2000
    2.1937   -1.3932    1.3686 O   0  0  0  0  0  0  0  0  0  0  0  0
    2.1636   -0.4872    0.5529 C   0  0  0  0  0  0  0  0  0  0  0  0
    1.1034   -0.4956   -0.4904 C   0  0  0  0  0  0  0  0  0  0  0  0
    1.2993    0.6323   -1.2750 O   0  0  0  0  0  0  0  0  0  0  0  0
   -0.2805   -0.5755    0.1147 C   0  0  0  0  0  0  0  0  0  0  0  0
   -0.4483   -1.7189    0.8964 O   0  0  0  0  0  0  0  0  0  0  0  0
   -0.6682    0.7124    0.7918 C   0  0  0  0  0  0  0  0  0  0  0  0
   -1.3582    1.1201   -0.4844 C   0  0  0  0  0  0  0  0  0  0  0  0
   -1.4264   -0.3452   -0.8355 C   0  0  0  0  0  0  0  0  0  0  0  0
    2.9186    0.2870    0.6293 H   0  0  0  0  0  0  0  0  0  0  0  0
    1.2004   -1.3801   -1.1663 H   0  0  0  0  0  0  0  0  0  0  0  0
    1.5883    1.4057   -0.7521 H   0  0  0  0  0  0  0  0  0  0  0  0
   -0.3865   -1.5221    1.8622 H   0  0  0  0  0  0  0  0  0  0  0  0
    0.1696    1.3591    1.1081 H   0  0  0  0  0  0  0  0  0  0  0  0
   -1.4290    0.5053    1.5706 H   0  0  0  0  0  0  0  0  0  0  0  0
   -2.3473    1.6075   -0.3423 H   0  0  0  0  0  0  0  0  0  0  0  0
   -0.7553    1.6927   -1.2175 H   0  0  0  0  0  0  0  0  0  0  0  0
   -2.3506   -0.8231   -0.4421 H   0  0  0  0  0  0  0  0  0  0  0  0
   -1.1864   -0.5810   -1.8890 H   0  0  0  0  0  0  0  0  0  0  0  0
  1  2  2  0
  2  3  1  0
  3  4  1  0
  3  5  1  0
  5  6  1  0
  5  7  1  0
  7  8  1  0
  8  9  1  0
  9  5  1  0
  2 10  1  0
  3 11  1  0
  4 12  1  0
  6 13  1  0
  7 14  1  0
  7 15  1  0
  8 16  1  0
  8 17  1  0
  9 18  1  0
  9 19  1  0
M  END
