
     RDKit          3D

 19 20  0  0  0  0  0  0  0  0999 V2000
    2.0771    1.7085    0.4703 O   0  0  0  0  0  0  0  0  0  0  0  0
    2.4493    0.6006    0.1246 C   0  0  0  0  0  0  0  0  0  0  0  0
    1.5240   -0.5134   -0.1056 C   0  0  0  0  0  0  0  0  0  0  0  0
    0.1358   -0.2253    0.1011 C   0  0  0  0  0  0  0  0  0  0  0  0
   -0.3924    0.2262    1.3946 C   0  0  0  0  0  0  0  0  0  0  0  0
   -1.7142    0.4045    1.1334 C   0  0  0  0  0  0  0  0  0  0  0  0
   -1.8048    0.0519   -0.2996 C   0  0  0  0  0  0  0  0  0  0  0  0
   -0.5653    0.7565   -0.8509 C   0  0  0  0  0  0  0  0  0  0  0  0
   -0.9247   -1.2094   -0.3439 C   0  0  0  0  0  0  0  0  0  0  0  0
    3.5215    0.4741   -0.0079 H   0  0  0  0  0  0  0  0  0  0  0  0
    1.8414   -1.3572    0.5416 H   0  0  0  0  0  0  0  0  0  0  0  0
    1.6828   -0.8936   -1.1569 H   0  0  0  0  0  0  0  0  0  0  0  0
    0.0928    0.3949    2.3518 H   0  0  0  0  0  0  0  0  0  0  0  0
   -2.4591    0.7272    1.8477 H   0  0  0  0  0  0  0  0  0  0  0  0
   -2.7008    0.0694   -0.8349 H   0  0  0  0  0  0  0  0  0  0  0  0
   -0.5230    1.8051   -0.5303 H   0  0  0  0  0  0  0  0  0  0  0  0
   -0.3187    0.5219   -1.8873 H   0  0  0  0  0  0  0  0  0  0  0  0
   -1.1655   -1.9348    0.4583 H   0  0  0  0  0  0  0  0  0  0  0  0
   -0.7561   -1.6072   -1.3436 H   0  0  0  0  0  0  0  0  0  0  0  0
  1  2  2  0
  2  3  1  0
  3  4  1  0
  4  5  1  0
  5  6  2  0
  6  7  1  0
  7  8  1  0
  7  9  1  0
  8  4  1  0
  9  4  1  0
  2 10  1  0
  3 11  1  0
  3 12  1  0
  5 13  1  0
  6 14  1  0
  7 15  1  0
  8 16  1  0
  8 17  1  0
  9 18  1  0
  9 19  1  0
M  END
