
     RDKit          3D

 13 14  0  0  0  0  0  0  0  0999 V2000
    2.5210   -0.6934   -1.1105 O   0  0  0  0  0  0  0  0  0  0  0  0
    1.8202    0.2139   -0.7118 C   0  0  0  0  0  0  0  0  0  0  0  0
    0.5310   -0.0112   -0.1808 C   0  0  0  0  0  0  0  0  0  0  0  0
   -0.6644    0.6452   -0.8311 C   0  0  0  0  0  0  0  0  0  0  0  0
   -1.6582    0.0721   -0.1475 C   0  0  0  0  0  0  0  0  0  0  0  0
   -0.8688   -0.8121    0.7931 C   0  0  0  0  0  0  0  0  0  0  0  0
    0.0486   -1.3440   -0.1158 O   0  0  0  0  0  0  0  0  0  0  0  0
    0.2222    0.0570    1.2357 C   0  0  0  0  0  0  0  0  0  0  0  0
    0.6282    0.5515    2.2398 O   0  0  0  0  0  0  0  0  0  0  0  0
    2.2315    1.2134   -0.7820 H   0  0  0  0  0  0  0  0  0  0  0  0
   -0.6854    1.3745   -1.6278 H   0  0  0  0  0  0  0  0  0  0  0  0
   -2.7307    0.1760   -0.2100 H   0  0  0  0  0  0  0  0  0  0  0  0
   -1.3955   -1.4430    1.4488 H   0  0  0  0  0  0  0  0  0  0  0  0
  1  2  2  0
  2  3  1  0
  3  4  1  0
  4  5  2  0
  5  6  1  0
  6  7  1  0
  6  8  1  0
  8  9  2  0
  7  3  1  0
  8  3  1  0
  2 10  1  0
  4 11  1  0
  5 12  1  0
  6 13  1  0
M  END
