
     RDKit          3D

 17 18  0  0  0  0  0  0  0  0999 V2000
   -2.0116    0.4343    1.7526 O   0  0  0  0  0  0  0  0  0  0  0  0
   -1.8334    0.9817    0.6838 C   0  0  0  0  0  0  0  0  0  0  0  0
   -0.5292    0.8168    0.0260 C   0  0  0  0  0  0  0  0  0  0  0  0
   -0.5381   -0.0182   -1.2456 C   0  0  0  0  0  0  0  0  0  0  0  0
    0.6381   -0.8185   -0.8228 C   0  0  0  0  0  0  0  0  0  0  0  0
    1.6910   -0.3536    0.0871 C   0  0  0  0  0  0  0  0  0  0  0  0
    2.3272    0.8819   -0.1578 O   0  0  0  0  0  0  0  0  0  0  0  0
    0.3297   -0.3095    0.6035 C   0  0  0  0  0  0  0  0  0  0  0  0
   -0.2414   -1.2582    1.4031 O   0  0  0  0  0  0  0  0  0  0  0  0
   -2.5817    1.5857    0.1865 H   0  0  0  0  0  0  0  0  0  0  0  0
    0.0144    1.7680   -0.1088 H   0  0  0  0  0  0  0  0  0  0  0  0
   -0.4844    0.5405   -2.1830 H   0  0  0  0  0  0  0  0  0  0  0  0
   -1.4821   -0.6406   -1.2352 H   0  0  0  0  0  0  0  0  0  0  0  0
    0.5690   -1.8973   -1.0090 H   0  0  0  0  0  0  0  0  0  0  0  0
    2.3700   -1.0999    0.5049 H   0  0  0  0  0  0  0  0  0  0  0  0
    2.0998    1.5391    0.5436 H   0  0  0  0  0  0  0  0  0  0  0  0
   -0.3373   -2.1523    0.9713 H   0  0  0  0  0  0  0  0  0  0  0  0
  1  2  2  0
  2  3  1  0
  3  4  1  0
  4  5  1  0
  5  6  1  0
  6  7  1  0
  6  8  1  0
  8  9  1  0
  8  3  1  0
  8  5  1  0
  2 10  1  0
  3 11  1  0
  4 12  1  0
  4 13  1  0
  5 14  1  0
  6 15  1  0
  7 16  1  0
  9 17  1  0
M  END
