
     RDKit          3D

 19 20  0  0  0  0  0  0  0  0999 V2000
    2.4433    1.4509   -0.8996 O   0  0  0  0  0  0  0  0  0  0  0  0
    1.8738    1.3423    0.1862 C   0  0  0  0  0  0  0  0  0  0  0  0
    1.3935   -0.0506    0.5296 C   0  0  0  0  0  0  0  0  0  0  0  0
    0.5333   -0.4714   -0.6215 C   0  0  0  0  0  0  0  0  0  0  0  0
   -0.0443   -1.8766   -0.4462 C   0  0  0  0  0  0  0  0  0  0  0  0
   -1.2167   -1.3747   -1.0557 O   0  0  0  0  0  0  0  0  0  0  0  0
   -0.9144   -0.1836   -0.5078 C   0  0  0  0  0  0  0  0  0  0  0  0
   -1.5747    1.0692   -0.5462 C   0  0  0  0  0  0  0  0  0  0  0  0
   -1.6015    0.2177    0.7229 C   0  0  0  0  0  0  0  0  0  0  0  0
    1.7078    2.1619    0.8775 H   0  0  0  0  0  0  0  0  0  0  0  0
    0.9190   -0.0514    1.4941 H   0  0  0  0  0  0  0  0  0  0  0  0
    2.3276   -0.6891    0.4737 H   0  0  0  0  0  0  0  0  0  0  0  0
    0.9688   -0.3379   -1.6221 H   0  0  0  0  0  0  0  0  0  0  0  0
    0.5168   -2.5868   -1.0460 H   0  0  0  0  0  0  0  0  0  0  0  0
   -0.1717   -2.0790    0.6121 H   0  0  0  0  0  0  0  0  0  0  0  0
   -2.5311    1.1436   -1.1440 H   0  0  0  0  0  0  0  0  0  0  0  0
   -0.9741    2.0114   -0.4117 H   0  0  0  0  0  0  0  0  0  0  0  0
   -1.0577    0.5717    1.6114 H   0  0  0  0  0  0  0  0  0  0  0  0
   -2.5975   -0.2679    0.9047 H   0  0  0  0  0  0  0  0  0  0  0  0
  1  2  2  0
  2  3  1  0
  3  4  1  0
  4  5  1  0
  5  6  1  0
  6  7  1  0
  7  8  1  0
  8  9  1  0
  7  4  1  0
  9  7  1  0
  2 10  1  0
  3 11  1  0
  3 12  1  0
  4 13  1  0
  5 14  1  0
  5 15  1  0
  8 16  1  0
  8 17  1  0
  9 18  1  0
  9 19  1  0
M  END
