
     RDKit          3D

 17 18  0  0  0  0  0  0  0  0999 V2000
    3.5293   -0.9322    0.8456 O   0  0  0  0  0  0  0  0  0  0  0  0
    2.3603   -0.9859    0.5150 C   0  0  0  0  0  0  0  0  0  0  0  0
    1.6029    0.2399    0.1602 C   0  0  0  0  0  0  0  0  0  0  0  0
    0.9827    0.1696   -1.1159 O   0  0  0  0  0  0  0  0  0  0  0  0
    0.2424    0.2728    0.1712 C   0  0  0  0  0  0  0  0  0  0  0  0
   -0.7270    1.3964    0.1110 C   0  0  0  0  0  0  0  0  0  0  0  0
   -1.8277    0.8145   -0.7073 C   0  0  0  0  0  0  0  0  0  0  0  0
   -1.7876   -0.5082   -0.6067 C   0  0  0  0  0  0  0  0  0  0  0  0
   -0.6671   -0.9242    0.2794 C   0  0  0  0  0  0  0  0  0  0  0  0
    1.8195   -1.9227    0.4638 H   0  0  0  0  0  0  0  0  0  0  0  0
    2.2186    1.1695    0.2328 H   0  0  0  0  0  0  0  0  0  0  0  0
   -1.1274    1.5543    1.1484 H   0  0  0  0  0  0  0  0  0  0  0  0
   -0.3260    2.3279   -0.3236 H   0  0  0  0  0  0  0  0  0  0  0  0
   -2.5594    1.3751   -1.3013 H   0  0  0  0  0  0  0  0  0  0  0  0
   -2.4746   -1.1669   -1.1018 H   0  0  0  0  0  0  0  0  0  0  0  0
   -0.1797   -1.8537   -0.0670 H   0  0  0  0  0  0  0  0  0  0  0  0
   -1.0791   -1.0261    1.2962 H   0  0  0  0  0  0  0  0  0  0  0  0
  1  2  2  0
  2  3  1  0
  3  4  1  0
  4  5  1  0
  5  6  1  0
  6  7  1  0
  7  8  2  0
  8  9  1  0
  5  3  1  0
  9  5  1  0
  2 10  1  0
  3 11  1  0
  6 12  1  0
  6 13  1  0
  7 14  1  0
  8 15  1  0
  9 16  1  0
  9 17  1  0
M  END
