
     RDKit          3D

 15 15  0  0  0  0  0  0  0  0999 V2000
    2.7772    1.6726   -0.1577 O   0  0  0  0  0  0  0  0  0  0  0  0
    2.3674    0.4936   -0.1686 C   0  0  0  0  0  0  0  0  0  0  0  0
    0.9367    0.1760   -0.1556 C   0  0  0  0  0  0  0  0  0  0  0  0
   -0.0229    1.0660   -0.1321 C   0  0  0  0  0  0  0  0  0  0  0  0
   -1.3659    0.4035   -0.1248 C   0  0  0  0  0  0  0  0  0  0  0  0
   -2.2485    1.0180    0.7389 O   0  0  0  0  0  0  0  0  0  0  0  0
   -1.0203   -0.9752    0.2572 C   0  0  0  0  0  0  0  0  0  0  0  0
   -1.7394   -1.7714    0.8115 O   0  0  0  0  0  0  0  0  0  0  0  0
    0.3781   -1.2019   -0.1673 C   0  0  0  0  0  0  0  0  0  0  0  0
    3.1143   -0.2903   -0.1881 H   0  0  0  0  0  0  0  0  0  0  0  0
    0.0810    2.1337   -0.1191 H   0  0  0  0  0  0  0  0  0  0  0  0
   -1.8004    0.4451   -1.1630 H   0  0  0  0  0  0  0  0  0  0  0  0
   -2.8238    0.3385    1.2129 H   0  0  0  0  0  0  0  0  0  0  0  0
    0.9406   -1.8469    0.5447 H   0  0  0  0  0  0  0  0  0  0  0  0
    0.4259   -1.6613   -1.1889 H   0  0  0  0  0  0  0  0  0  0  0  0
  1  2  2  0
  2  3  1  0
  3  4  2  0
  4  5  1  0
  5  6  1  0
  5  7  1  0
  7  8  2  0
  7  9  1  0
  9  3  1  0
  2 10  1  0
  4 11  1  0
  5 12  1  0
  6 13  1  0
  9 14  1  0
  9 15  1  0
M  END
