
     RDKit          3D

 17 18  0  0  0  0  0  0  0  0999 V2000
   -1.9145   -1.1266   -1.6579 O   0  0  0  0  0  0  0  0  0  0  0  0
   -1.7790   -0.9096   -0.4687 C   0  0  0  0  0  0  0  0  0  0  0  0
   -1.1467    0.2703    0.1252 C   0  0  0  0  0  0  0  0  0  0  0  0
   -0.6422    1.1824   -0.8223 O   0  0  0  0  0  0  0  0  0  0  0  0
    0.7444    1.3244   -0.5361 C   0  0  0  0  0  0  0  0  0  0  0  0
    1.0180   -0.0707   -0.0862 C   0  0  0  0  0  0  0  0  0  0  0  0
    0.6231   -0.9121   -1.1661 O   0  0  0  0  0  0  0  0  0  0  0  0
    1.0964   -0.7303    1.1402 C   0  0  0  0  0  0  0  0  0  0  0  0
   -0.0555    0.0685    1.0737 C   0  0  0  0  0  0  0  0  0  0  0  0
   -2.1646   -1.6642    0.2041 H   0  0  0  0  0  0  0  0  0  0  0  0
   -1.9986    0.8437    0.6138 H   0  0  0  0  0  0  0  0  0  0  0  0
    0.8594    2.0886    0.2437 H   0  0  0  0  0  0  0  0  0  0  0  0
    1.2424    1.5831   -1.4896 H   0  0  0  0  0  0  0  0  0  0  0  0
    1.1851   -0.6373   -1.9142 H   0  0  0  0  0  0  0  0  0  0  0  0
    1.9447   -0.4783    1.8316 H   0  0  0  0  0  0  0  0  0  0  0  0
    0.9428   -1.8478    1.2045 H   0  0  0  0  0  0  0  0  0  0  0  0
    0.0447    1.0159    1.7043 H   0  0  0  0  0  0  0  0  0  0  0  0
  1  2  2  0
  2  3  1  0
  3  4  1  0
  4  5  1  0
  5  6  1  0
  6  7  1  0
  6  8  1  0
  8  9  1  0
  9  3  1  0
  9  6  1  0
  2 10  1  0
  3 11  1  0
  5 12  1  0
  5 13  1  0
  7 14  1  0
  8 15  1  0
  8 16  1  0
  9 17  1  0
M  END
