
     RDKit          3D

 14 14  0  0  0  0  0  0  0  0999 V2000
   -2.9422   -0.1470   -0.4028 O   0  0  0  0  0  0  0  0  0  0  0  0
   -1.9662    0.0755    0.2893 C   0  0  0  0  0  0  0  0  0  0  0  0
   -0.6327   -0.1558   -0.3105 C   0  0  0  0  0  0  0  0  0  0  0  0
    0.0981    1.0762   -0.6132 C   0  0  0  0  0  0  0  0  0  0  0  0
    1.3858    0.8796   -0.3943 C   0  0  0  0  0  0  0  0  0  0  0  0
    1.6124   -0.4823    0.0677 C   0  0  0  0  0  0  0  0  0  0  0  0
    2.6395   -1.1831    0.0460 O   0  0  0  0  0  0  0  0  0  0  0  0
    0.2953   -0.9005    0.6047 C   0  0  0  0  0  0  0  0  0  0  0  0
   -2.0906    0.4211    1.2810 H   0  0  0  0  0  0  0  0  0  0  0  0
   -0.6944   -0.7357   -1.2556 H   0  0  0  0  0  0  0  0  0  0  0  0
   -0.2661    2.0418   -0.9643 H   0  0  0  0  0  0  0  0  0  0  0  0
    2.2067    1.6042   -0.5264 H   0  0  0  0  0  0  0  0  0  0  0  0
    0.2291   -0.5052    1.6366 H   0  0  0  0  0  0  0  0  0  0  0  0
    0.1251   -1.9889    0.5418 H   0  0  0  0  0  0  0  0  0  0  0  0
  1  2  2  0
  2  3  1  0
  3  4  1  0
  4  5  2  0
  5  6  1  0
  6  7  2  0
  6  8  1  0
  8  3  1  0
  2  9  1  0
  3 10  1  0
  4 11  1  0
  5 12  1  0
  8 13  1  0
  8 14  1  0
M  END
