
     RDKit          3D

 15 18  0  0  0  0  0  0  0  0999 V2000
    2.6772    0.1252   -1.2203 O   0  0  0  0  0  0  0  0  0  0  0  0
    2.1835   -0.1459   -0.1241 C   0  0  0  0  0  0  0  0  0  0  0  0
    0.8697    0.3742    0.1957 C   0  0  0  0  0  0  0  0  0  0  0  0
    0.1772    1.1697   -0.7272 O   0  0  0  0  0  0  0  0  0  0  0  0
   -1.1763    0.7859   -0.8367 C   0  0  0  0  0  0  0  0  0  0  0  0
   -0.7796   -0.3802   -0.5863 C   0  0  0  0  0  0  0  0  0  0  0  0
   -1.5445   -0.3383    0.2633 C   0  0  0  0  0  0  0  0  0  0  0  0
   -0.0696   -0.8174    0.7585 C   0  0  0  0  0  0  0  0  0  0  0  0
   -0.2022    0.3083    0.8292 C   0  0  0  0  0  0  0  0  0  0  0  0
    2.7773   -0.7601    0.5249 H   0  0  0  0  0  0  0  0  0  0  0  0
   -1.9284    1.5716   -0.8435 H   0  0  0  0  0  0  0  0  0  0  0  0
   -0.1938   -1.0950   -1.1314 H   0  0  0  0  0  0  0  0  0  0  0  0
   -2.1957    0.0102    1.0716 H   0  0  0  0  0  0  0  0  0  0  0  0
    0.2011   -1.8242    0.4454 H   0  0  0  0  0  0  0  0  0  0  0  0
   -0.7958    1.0160    1.3811 H   0  0  0  0  0  0  0  0  0  0  0  0
  1  2  2  0
  2  3  1  0
  3  4  1  0
  4  5  1  0
  5  6  1  0
  6  7  1  0
  7  8  1  0
  8  9  1  0
  8  3  1  0
  9  3  1  0
  7  5  1  0
  9  6  1  0
  2 10  1  0
  5 11  1  0
  6 12  1  0
  7 13  1  0
  8 14  1  0
  9 15  1  0
M  END
