
     RDKit          3D

 19 20  0  0  0  0  0  0  0  0999 V2000
   -2.9430    0.7580    1.3314 O   0  0  0  0  0  0  0  0  0  0  0  0
   -2.4644   -0.0813    0.5522 C   0  0  0  0  0  0  0  0  0  0  0  0
   -1.1802   -0.0879    0.1679 C   0  0  0  0  0  0  0  0  0  0  0  0
    0.0238    0.3123    0.9902 C   0  0  0  0  0  0  0  0  0  0  0  0
    0.6103   -0.1172   -0.3115 C   0  0  0  0  0  0  0  0  0  0  0  0
    1.9207   -0.1268   -0.7009 C   0  0  0  0  0  0  0  0  0  0  0  0
    2.4805    1.1735   -0.6604 O   0  0  0  0  0  0  0  0  0  0  0  0
   -0.5142    0.6523   -0.9654 C   0  0  0  0  0  0  0  0  0  0  0  0
   -0.3514   -1.2730   -0.2508 C   0  0  0  0  0  0  0  0  0  0  0  0
   -3.2230   -0.8143    0.2195 H   0  0  0  0  0  0  0  0  0  0  0  0
    0.0530    1.3885    1.1578 H   0  0  0  0  0  0  0  0  0  0  0  0
    0.2505   -0.3505    1.8422 H   0  0  0  0  0  0  0  0  0  0  0  0
    2.0444   -0.4333   -1.7793 H   0  0  0  0  0  0  0  0  0  0  0  0
    2.5770   -0.7789   -0.1289 H   0  0  0  0  0  0  0  0  0  0  0  0
    2.7609    1.3877    0.2795 H   0  0  0  0  0  0  0  0  0  0  0  0
   -0.7796    0.3526   -1.9772 H   0  0  0  0  0  0  0  0  0  0  0  0
   -0.5047    1.7417   -0.7858 H   0  0  0  0  0  0  0  0  0  0  0  0
   -0.6484   -1.6999   -1.2188 H   0  0  0  0  0  0  0  0  0  0  0  0
   -0.1121   -2.0036    0.5514 H   0  0  0  0  0  0  0  0  0  0  0  0
  1  2  2  0
  2  3  1  0
  3  4  1  0
  4  5  1  0
  5  6  1  0
  6  7  1  0
  5  8  1  0
  5  9  1  0
  8  3  1  0
  9  3  1  0
  2 10  1  0
  4 11  1  0
  4 12  1  0
  6 13  1  0
  6 14  1  0
  7 15  1  0
  8 16  1  0
  8 17  1  0
  9 18  1  0
  9 19  1  0
M  END
