
     RDKit          3D

 17 18  0  0  0  0  0  0  0  0999 V2000
   -1.0448    0.9030    1.7057 O   0  0  0  0  0  0  0  0  0  0  0  0
   -2.0272    0.7304    0.9821 C   0  0  0  0  0  0  0  0  0  0  0  0
   -1.9301   -0.0590   -0.2668 C   0  0  0  0  0  0  0  0  0  0  0  0
   -0.5653   -0.5682   -0.5323 C   0  0  0  0  0  0  0  0  0  0  0  0
   -0.0144   -1.4094    0.4361 O   0  0  0  0  0  0  0  0  0  0  0  0
    1.2246   -0.8069    0.5084 C   0  0  0  0  0  0  0  0  0  0  0  0
    1.9212   -0.3003   -0.6943 C   0  0  0  0  0  0  0  0  0  0  0  0
    3.0217    0.5002   -0.5171 O   0  0  0  0  0  0  0  0  0  0  0  0
    0.6066    0.3251   -0.3432 C   0  0  0  0  0  0  0  0  0  0  0  0
   -2.9519    1.1884    1.3169 H   0  0  0  0  0  0  0  0  0  0  0  0
   -2.6736   -0.8751   -0.2745 H   0  0  0  0  0  0  0  0  0  0  0  0
   -2.2107    0.6275   -1.0963 H   0  0  0  0  0  0  0  0  0  0  0  0
   -0.4708   -1.1085   -1.5202 H   0  0  0  0  0  0  0  0  0  0  0  0
    1.6477   -0.5177    1.4830 H   0  0  0  0  0  0  0  0  0  0  0  0
    1.8996   -0.8616   -1.6528 H   0  0  0  0  0  0  0  0  0  0  0  0
    3.0205    0.9041    0.3870 H   0  0  0  0  0  0  0  0  0  0  0  0
    0.5471    1.3280    0.0783 H   0  0  0  0  0  0  0  0  0  0  0  0
  1  2  2  0
  2  3  1  0
  3  4  1  0
  4  5  1  0
  5  6  1  0
  6  7  1  0
  7  8  1  0
  7  9  1  0
  9  4  1  0
  9  6  1  0
  2 10  1  0
  3 11  1  0
  3 12  1  0
  4 13  1  0
  6 14  1  0
  7 15  1  0
  8 16  1  0
  9 17  1  0
M  END
