
     RDKit          3D

 14 14  0  0  0  0  0  0  0  0999 V2000
    2.9734   -0.8965   -0.6013 O   0  0  0  0  0  0  0  0  0  0  0  0
    2.2854    0.1303   -0.4009 C   0  0  0  0  0  0  0  0  0  0  0  0
    0.8569    0.0261   -0.0866 C   0  0  0  0  0  0  0  0  0  0  0  0
    0.1636   -1.0967    0.0173 C   0  0  0  0  0  0  0  0  0  0  0  0
   -1.2486   -0.8092    0.3466 C   0  0  0  0  0  0  0  0  0  0  0  0
   -1.4445    0.6275   -0.0631 C   0  0  0  0  0  0  0  0  0  0  0  0
   -0.0494    1.1548    0.1601 C   0  0  0  0  0  0  0  0  0  0  0  0
    0.2845    2.3190    0.4899 O   0  0  0  0  0  0  0  0  0  0  0  0
    2.7662    1.0897   -0.4647 H   0  0  0  0  0  0  0  0  0  0  0  0
    0.6217   -2.0792   -0.1303 H   0  0  0  0  0  0  0  0  0  0  0  0
   -1.9329   -1.4956   -0.1850 H   0  0  0  0  0  0  0  0  0  0  0  0
   -1.4183   -0.8356    1.4562 H   0  0  0  0  0  0  0  0  0  0  0  0
   -1.6832    0.7100   -1.1237 H   0  0  0  0  0  0  0  0  0  0  0  0
   -2.1746    1.1554    0.5855 H   0  0  0  0  0  0  0  0  0  0  0  0
  1  2  2  0
  2  3  1  0
  3  4  2  0
  4  5  1  0
  5  6  1  0
  6  7  1  0
  7  8  2  0
  7  3  1  0
  2  9  1  0
  4 10  1  0
  5 11  1  0
  5 12  1  0
  6 13  1  0
  6 14  1  0
M  END
