
     RDKit          3D

 15 14  0  0  0  0  0  0  0  0999 V2000
   -1.2749    2.0915   -0.9550 O   0  0  0  0  0  0  0  0  0  0  0  0
   -0.2851    1.3711   -0.9584 C   0  0  0  0  0  0  0  0  0  0  0  0
   -0.2367    0.1184   -0.1660 C   0  0  0  0  0  0  0  0  0  0  0  0
   -1.3999    0.0880    0.7591 C   0  0  0  0  0  0  0  0  0  0  0  0
   -1.3921   -0.3457    1.8778 O   0  0  0  0  0  0  0  0  0  0  0  0
   -0.3135   -1.0849   -1.0296 C   0  0  0  0  0  0  0  0  0  0  0  0
   -0.4302   -2.1701   -0.4824 O   0  0  0  0  0  0  0  0  0  0  0  0
    1.0753    0.0986    0.5787 C   0  0  0  0  0  0  0  0  0  0  0  0
    1.1786   -1.0522    1.3396 O   0  0  0  0  0  0  0  0  0  0  0  0
    0.5413    1.7073   -1.5717 H   0  0  0  0  0  0  0  0  0  0  0  0
   -2.3276    0.4949    0.3791 H   0  0  0  0  0  0  0  0  0  0  0  0
   -0.2628   -0.9468   -2.0999 H   0  0  0  0  0  0  0  0  0  0  0  0
    1.1855    0.9828    1.2392 H   0  0  0  0  0  0  0  0  0  0  0  0
    1.8862    0.1456   -0.1623 H   0  0  0  0  0  0  0  0  0  0  0  0
    2.0558   -1.4984    1.2517 H   0  0  0  0  0  0  0  0  0  0  0  0
  1  2  2  0
  2  3  1  0
  3  4  1  0
  4  5  2  0
  3  6  1  0
  6  7  2  0
  3  8  1  0
  8  9  1  0
  2 10  1  0
  4 11  1  0
  6 12  1  0
  8 13  1  0
  8 14  1  0
  9 15  1  0
M  END
