
     RDKit          3D

 21 20  0  0  0  0  0  0  0  0999 V2000
    1.3573   -2.7240    0.8371 O   0  0  0  0  0  0  0  0  0  0  0  0
    1.0445   -1.5716    1.0500 C   0  0  0  0  0  0  0  0  0  0  0  0
    1.1868   -0.4754    0.0581 C   0  0  0  0  0  0  0  0  0  0  0  0
    2.4168    0.3231    0.4673 C   0  0  0  0  0  0  0  0  0  0  0  0
    2.6472    1.3862   -0.4022 O   0  0  0  0  0  0  0  0  0  0  0  0
   -0.0426    0.4122    0.2087 C   0  0  0  0  0  0  0  0  0  0  0  0
   -1.3014   -0.3746   -0.0569 C   0  0  0  0  0  0  0  0  0  0  0  0
   -2.4761    0.5695    0.1106 C   0  0  0  0  0  0  0  0  0  0  0  0
   -3.6872   -0.0690   -0.1156 O   0  0  0  0  0  0  0  0  0  0  0  0
    0.6357   -1.3061    2.0134 H   0  0  0  0  0  0  0  0  0  0  0  0
    1.2699   -0.8376   -0.9751 H   0  0  0  0  0  0  0  0  0  0  0  0
    2.2171    0.7144    1.5050 H   0  0  0  0  0  0  0  0  0  0  0  0
    3.3175   -0.3169    0.5248 H   0  0  0  0  0  0  0  0  0  0  0  0
    3.4825    1.2183   -0.9299 H   0  0  0  0  0  0  0  0  0  0  0  0
   -0.0231    1.2735   -0.4865 H   0  0  0  0  0  0  0  0  0  0  0  0
   -0.0361    0.7767    1.2537 H   0  0  0  0  0  0  0  0  0  0  0  0
   -1.4434   -1.2002    0.6699 H   0  0  0  0  0  0  0  0  0  0  0  0
   -1.3174   -0.8072   -1.0580 H   0  0  0  0  0  0  0  0  0  0  0  0
   -2.4632    1.0234    1.1322 H   0  0  0  0  0  0  0  0  0  0  0  0
   -2.4106    1.4090   -0.6135 H   0  0  0  0  0  0  0  0  0  0  0  0
   -4.3740    0.5762   -0.3510 H   0  0  0  0  0  0  0  0  0  0  0  0
  1  2  2  0
  2  3  1  0
  3  4  1  0
  4  5  1  0
  3  6  1  0
  6  7  1  0
  7  8  1  0
  8  9  1  0
  2 10  1  0
  3 11  1  0
  4 12  1  0
  4 13  1  0
  5 14  1  0
  6 15  1  0
  6 16  1  0
  7 17  1  0
  7 18  1  0
  8 19  1  0
  8 20  1  0
  9 21  1  0
M  END
