
     RDKit          3D

 17 18  0  0  0  0  0  0  0  0999 V2000
    2.3474   -0.2178   -1.1915 O   0  0  0  0  0  0  0  0  0  0  0  0
    2.3070    0.5091   -0.2122 C   0  0  0  0  0  0  0  0  0  0  0  0
    1.3542    0.2572    0.9116 C   0  0  0  0  0  0  0  0  0  0  0  0
    1.0917   -0.9551    1.2264 O   0  0  0  0  0  0  0  0  0  0  0  0
    0.0365   -0.2785    0.7742 C   0  0  0  0  0  0  0  0  0  0  0  0
   -0.6766   -1.3919    0.1120 C   0  0  0  0  0  0  0  0  0  0  0  0
   -1.7556   -0.3826   -0.3100 C   0  0  0  0  0  0  0  0  0  0  0  0
   -0.5143    0.5046   -0.3175 C   0  0  0  0  0  0  0  0  0  0  0  0
   -0.9132    1.7986    0.0907 O   0  0  0  0  0  0  0  0  0  0  0  0
    3.0060    1.3391   -0.2219 H   0  0  0  0  0  0  0  0  0  0  0  0
    1.4536    1.0253    1.7314 H   0  0  0  0  0  0  0  0  0  0  0  0
   -1.1264   -2.1730    0.7358 H   0  0  0  0  0  0  0  0  0  0  0  0
   -0.2381   -1.8055   -0.8193 H   0  0  0  0  0  0  0  0  0  0  0  0
   -2.1894   -0.5741   -1.2914 H   0  0  0  0  0  0  0  0  0  0  0  0
   -2.4332   -0.2221    0.5347 H   0  0  0  0  0  0  0  0  0  0  0  0
   -0.0524    0.4785   -1.3146 H   0  0  0  0  0  0  0  0  0  0  0  0
   -1.6972    2.0882   -0.4385 H   0  0  0  0  0  0  0  0  0  0  0  0
  1  2  2  0
  2  3  1  0
  3  4  1  0
  4  5  1  0
  5  6  1  0
  6  7  1  0
  7  8  1  0
  8  9  1  0
  5  3  1  0
  8  5  1  0
  2 10  1  0
  3 11  1  0
  6 12  1  0
  6 13  1  0
  7 14  1  0
  7 15  1  0
  8 16  1  0
  9 17  1  0
M  END
