
     RDKit          3D

 21 21  0  0  0  0  0  0  0  0999 V2000
   -3.4382   -1.0985    0.4958 O   0  0  0  0  0  0  0  0  0  0  0  0
   -3.1050   -0.0457    0.0119 C   0  0  0  0  0  0  0  0  0  0  0  0
   -1.7693    0.0503   -0.6681 C   0  0  0  0  0  0  0  0  0  0  0  0
   -0.7314   -0.4006    0.3384 C   0  0  0  0  0  0  0  0  0  0  0  0
   -0.7264    0.3743    1.4737 O   0  0  0  0  0  0  0  0  0  0  0  0
    0.5968   -0.3966   -0.3497 C   0  0  0  0  0  0  0  0  0  0  0  0
    1.7689   -0.8169    0.5141 C   0  0  0  0  0  0  0  0  0  0  0  0
    2.5935    0.1675   -0.2965 C   0  0  0  0  0  0  0  0  0  0  0  0
    1.2814    0.9418   -0.5037 C   0  0  0  0  0  0  0  0  0  0  0  0
   -3.7396    0.8349    0.0515 H   0  0  0  0  0  0  0  0  0  0  0  0
   -1.5843    1.0882   -1.0074 H   0  0  0  0  0  0  0  0  0  0  0  0
   -1.7341   -0.6223   -1.5665 H   0  0  0  0  0  0  0  0  0  0  0  0
   -0.9844   -1.4289    0.6529 H   0  0  0  0  0  0  0  0  0  0  0  0
   -1.3320    1.1326    1.4708 H   0  0  0  0  0  0  0  0  0  0  0  0
    0.6140   -0.9497   -1.3144 H   0  0  0  0  0  0  0  0  0  0  0  0
    2.1008   -1.8709    0.4228 H   0  0  0  0  0  0  0  0  0  0  0  0
    1.6467   -0.4594    1.5487 H   0  0  0  0  0  0  0  0  0  0  0  0
    2.9186   -0.2311   -1.2897 H   0  0  0  0  0  0  0  0  0  0  0  0
    3.3534    0.7296    0.2652 H   0  0  0  0  0  0  0  0  0  0  0  0
    1.1632    1.3933   -1.5021 H   0  0  0  0  0  0  0  0  0  0  0  0
    1.1072    1.6081    0.3765 H   0  0  0  0  0  0  0  0  0  0  0  0
  1  2  2  0
  2  3  1  0
  3  4  1  0
  4  5  1  0
  4  6  1  0
  6  7  1  0
  7  8  1  0
  8  9  1  0
  9  6  1  0
  2 10  1  0
  3 11  1  0
  3 12  1  0
  4 13  1  0
  5 14  1  0
  6 15  1  0
  7 16  1  0
  7 17  1  0
  8 18  1  0
  8 19  1  0
  9 20  1  0
  9 21  1  0
M  END
