
     RDKit          3D

 15 14  0  0  0  0  0  0  0  0999 V2000
    2.1710    1.5208    0.3452 O   0  0  0  0  0  0  0  0  0  0  0  0
    2.4430    0.4651   -0.3019 C   0  0  0  0  0  0  0  0  0  0  0  0
    1.3170   -0.2564   -0.8733 C   0  0  0  0  0  0  0  0  0  0  0  0
    1.5626   -1.3060   -1.5197 O   0  0  0  0  0  0  0  0  0  0  0  0
   -0.0697    0.2022   -0.7164 C   0  0  0  0  0  0  0  0  0  0  0  0
   -0.8070   -0.5403    0.3828 C   0  0  0  0  0  0  0  0  0  0  0  0
   -0.2120   -0.3922    1.6252 O   0  0  0  0  0  0  0  0  0  0  0  0
   -2.2300   -0.1353    0.4431 C   0  0  0  0  0  0  0  0  0  0  0  0
   -2.7268    0.2639    1.5034 O   0  0  0  0  0  0  0  0  0  0  0  0
    3.4625    0.1454   -0.4058 H   0  0  0  0  0  0  0  0  0  0  0  0
   -0.6762    0.0328   -1.6479 H   0  0  0  0  0  0  0  0  0  0  0  0
   -0.1616    1.2916   -0.5078 H   0  0  0  0  0  0  0  0  0  0  0  0
   -0.8013   -1.6448    0.1479 H   0  0  0  0  0  0  0  0  0  0  0  0
   -0.4122    0.5330    1.9557 H   0  0  0  0  0  0  0  0  0  0  0  0
   -2.8593   -0.1798   -0.4305 H   0  0  0  0  0  0  0  0  0  0  0  0
  1  2  2  0
  2  3  1  0
  3  4  2  0
  3  5  1  0
  5  6  1  0
  6  7  1  0
  6  8  1  0
  8  9  2  0
  2 10  1  0
  5 11  1  0
  5 12  1  0
  6 13  1  0
  7 14  1  0
  8 15  1  0
M  END
