
     RDKit          3D

 17 18  0  0  0  0  0  0  0  0999 V2000
    2.7977   -0.2983    0.9622 O   0  0  0  0  0  0  0  0  0  0  0  0
    2.5293    0.0349   -0.1762 C   0  0  0  0  0  0  0  0  0  0  0  0
    1.1469    0.1326   -0.7042 C   0  0  0  0  0  0  0  0  0  0  0  0
    0.2381   -0.9605   -0.2330 C   0  0  0  0  0  0  0  0  0  0  0  0
   -0.8567   -1.1987   -1.0259 O   0  0  0  0  0  0  0  0  0  0  0  0
   -1.8891   -0.5846   -0.3199 C   0  0  0  0  0  0  0  0  0  0  0  0
   -1.2963    0.8077   -0.0877 C   0  0  0  0  0  0  0  0  0  0  0  0
    0.1152    0.4409    0.3110 C   0  0  0  0  0  0  0  0  0  0  0  0
    0.4829    0.7150    1.6158 O   0  0  0  0  0  0  0  0  0  0  0  0
    3.3478    0.2726   -0.8381 H   0  0  0  0  0  0  0  0  0  0  0  0
    1.0415    0.4474   -1.7574 H   0  0  0  0  0  0  0  0  0  0  0  0
    0.6010   -1.7268    0.4733 H   0  0  0  0  0  0  0  0  0  0  0  0
   -1.9460   -1.0756    0.6768 H   0  0  0  0  0  0  0  0  0  0  0  0
   -2.8308   -0.5532   -0.8595 H   0  0  0  0  0  0  0  0  0  0  0  0
   -1.3532    1.4394   -0.9762 H   0  0  0  0  0  0  0  0  0  0  0  0
   -1.7920    1.3226    0.7567 H   0  0  0  0  0  0  0  0  0  0  0  0
   -0.3364    0.7845    2.1823 H   0  0  0  0  0  0  0  0  0  0  0  0
  1  2  2  0
  2  3  1  0
  3  4  1  0
  4  5  1  0
  5  6  1  0
  6  7  1  0
  7  8  1  0
  8  9  1  0
  8  3  1  0
  8  4  1  0
  2 10  1  0
  3 11  1  0
  4 12  1  0
  6 13  1  0
  6 14  1  0
  7 15  1  0
  7 16  1  0
  9 17  1  0
M  END
