
     RDKit          3D

 19 19  0  0  0  0  0  0  0  0999 V2000
    3.3360   -0.0702   -0.8657 O   0  0  0  0  0  0  0  0  0  0  0  0
    2.1573   -0.2747   -1.1006 C   0  0  0  0  0  0  0  0  0  0  0  0
    1.1459    0.5726   -0.4590 C   0  0  0  0  0  0  0  0  0  0  0  0
    1.7363    1.5153    0.3514 O   0  0  0  0  0  0  0  0  0  0  0  0
    0.1502   -0.1977    0.3672 C   0  0  0  0  0  0  0  0  0  0  0  0
   -0.6191   -1.2038   -0.4503 C   0  0  0  0  0  0  0  0  0  0  0  0
   -2.0148   -0.6396   -0.4438 C   0  0  0  0  0  0  0  0  0  0  0  0
   -2.0544   -0.0377    0.8355 O   0  0  0  0  0  0  0  0  0  0  0  0
   -0.9357    0.7690    0.7895 C   0  0  0  0  0  0  0  0  0  0  0  0
    1.9433   -1.0879   -1.7830 H   0  0  0  0  0  0  0  0  0  0  0  0
    0.5510    1.0525   -1.2897 H   0  0  0  0  0  0  0  0  0  0  0  0
    1.6781    2.3880   -0.1235 H   0  0  0  0  0  0  0  0  0  0  0  0
    0.5796   -0.7025    1.2334 H   0  0  0  0  0  0  0  0  0  0  0  0
   -0.2090   -1.3886   -1.4414 H   0  0  0  0  0  0  0  0  0  0  0  0
   -0.6745   -2.1922    0.0730 H   0  0  0  0  0  0  0  0  0  0  0  0
   -2.1740    0.1547   -1.1662 H   0  0  0  0  0  0  0  0  0  0  0  0
   -2.7936   -1.4184   -0.4330 H   0  0  0  0  0  0  0  0  0  0  0  0
   -1.0351    1.5844    0.0365 H   0  0  0  0  0  0  0  0  0  0  0  0
   -0.7675    1.1770    1.8011 H   0  0  0  0  0  0  0  0  0  0  0  0
  1  2  2  0
  2  3  1  0
  3  4  1  0
  3  5  1  0
  5  6  1  0
  6  7  1  0
  7  8  1  0
  8  9  1  0
  9  5  1  0
  2 10  1  0
  3 11  1  0
  4 12  1  0
  5 13  1  0
  6 14  1  0
  6 15  1  0
  7 16  1  0
  7 17  1  0
  9 18  1  0
  9 19  1  0
M  END
