
     RDKit          3D

 19 20  0  0  0  0  0  0  0  0999 V2000
    3.1386   -0.4025    1.7864 O   0  0  0  0  0  0  0  0  0  0  0  0
    2.5748   -0.1222    0.7561 C   0  0  0  0  0  0  0  0  0  0  0  0
    1.0738   -0.0147    0.6494 C   0  0  0  0  0  0  0  0  0  0  0  0
    0.5184   -0.6359   -0.6424 C   0  0  0  0  0  0  0  0  0  0  0  0
   -0.7530   -1.3821   -0.4380 C   0  0  0  0  0  0  0  0  0  0  0  0
   -1.8057   -0.6186    0.2550 C   0  0  0  0  0  0  0  0  0  0  0  0
   -1.8578    0.6936    0.3065 C   0  0  0  0  0  0  0  0  0  0  0  0
   -0.8105    1.4786   -0.3622 C   0  0  0  0  0  0  0  0  0  0  0  0
    0.5101    0.7958   -0.4413 C   0  0  0  0  0  0  0  0  0  0  0  0
    3.1270    0.0696   -0.1593 H   0  0  0  0  0  0  0  0  0  0  0  0
    0.5671   -0.2158    1.5929 H   0  0  0  0  0  0  0  0  0  0  0  0
    1.2356   -1.1278   -1.3291 H   0  0  0  0  0  0  0  0  0  0  0  0
   -0.5110   -2.2690    0.2155 H   0  0  0  0  0  0  0  0  0  0  0  0
   -1.1675   -1.7591   -1.3927 H   0  0  0  0  0  0  0  0  0  0  0  0
   -2.5904   -1.2023    0.7555 H   0  0  0  0  0  0  0  0  0  0  0  0
   -2.6519    1.1847    0.8280 H   0  0  0  0  0  0  0  0  0  0  0  0
   -1.1647    1.6443   -1.4217 H   0  0  0  0  0  0  0  0  0  0  0  0
   -0.7043    2.4949    0.0666 H   0  0  0  0  0  0  0  0  0  0  0  0
    1.2715    1.3886   -1.0253 H   0  0  0  0  0  0  0  0  0  0  0  0
  1  2  2  0
  2  3  1  0
  3  4  1  0
  4  5  1  0
  5  6  1  0
  6  7  2  0
  7  8  1  0
  8  9  1  0
  9  3  1  0
  9  4  1  0
  2 10  1  0
  3 11  1  0
  4 12  1  0
  5 13  1  0
  5 14  1  0
  6 15  1  0
  7 16  1  0
  8 17  1  0
  8 18  1  0
  9 19  1  0
M  END
