
     RDKit          3D

 21 21  0  0  0  0  0  0  0  0999 V2000
    3.4214    1.3125    0.1490 O   0  0  0  0  0  0  0  0  0  0  0  0
    3.4394    0.1192   -0.0632 C   0  0  0  0  0  0  0  0  0  0  0  0
    2.2187   -0.7181   -0.1495 C   0  0  0  0  0  0  0  0  0  0  0  0
    1.0388    0.1901    0.0713 C   0  0  0  0  0  0  0  0  0  0  0  0
   -0.2910   -0.5888    0.0008 C   0  0  0  0  0  0  0  0  0  0  0  0
   -1.4073    0.2592    0.2076 C   0  0  0  0  0  0  0  0  0  0  0  0
   -1.2014    0.7855    1.4608 O   0  0  0  0  0  0  0  0  0  0  0  0
   -2.4059   -0.2123   -0.6992 C   0  0  0  0  0  0  0  0  0  0  0  0
   -2.6259    0.9436   -0.0509 C   0  0  0  0  0  0  0  0  0  0  0  0
    4.3948   -0.3615   -0.1968 H   0  0  0  0  0  0  0  0  0  0  0  0
    2.2718   -1.5601    0.5485 H   0  0  0  0  0  0  0  0  0  0  0  0
    2.1763   -1.0889   -1.2149 H   0  0  0  0  0  0  0  0  0  0  0  0
    1.0241    0.9286   -0.7574 H   0  0  0  0  0  0  0  0  0  0  0  0
    1.1371    0.7318    1.0131 H   0  0  0  0  0  0  0  0  0  0  0  0
   -0.1366   -1.1799   -0.9372 H   0  0  0  0  0  0  0  0  0  0  0  0
   -0.1995   -1.3752    0.8028 H   0  0  0  0  0  0  0  0  0  0  0  0
   -1.6011    0.2076    2.1399 H   0  0  0  0  0  0  0  0  0  0  0  0
   -2.1197   -0.1877   -1.7981 H   0  0  0  0  0  0  0  0  0  0  0  0
   -3.0293   -1.1436   -0.5376 H   0  0  0  0  0  0  0  0  0  0  0  0
   -3.5599    0.9927    0.5945 H   0  0  0  0  0  0  0  0  0  0  0  0
   -2.5448    1.9452   -0.5835 H   0  0  0  0  0  0  0  0  0  0  0  0
  1  2  2  0
  2  3  1  0
  3  4  1  0
  4  5  1  0
  5  6  1  0
  6  7  1  0
  6  8  1  0
  8  9  1  0
  9  6  1  0
  2 10  1  0
  3 11  1  0
  3 12  1  0
  4 13  1  0
  4 14  1  0
  5 15  1  0
  5 16  1  0
  7 17  1  0
  8 18  1  0
  8 19  1  0
  9 20  1  0
  9 21  1  0
M  END
