
     RDKit          3D

 17 18  0  0  0  0  0  0  0  0999 V2000
   -1.1884    2.7043    0.2982 O   0  0  0  0  0  0  0  0  0  0  0  0
   -1.1409    1.5390    0.6314 C   0  0  0  0  0  0  0  0  0  0  0  0
   -0.5468    0.5437   -0.2376 C   0  0  0  0  0  0  0  0  0  0  0  0
    0.7943    0.7932   -0.9155 C   0  0  0  0  0  0  0  0  0  0  0  0
    1.3738   -0.1630    0.1122 C   0  0  0  0  0  0  0  0  0  0  0  0
    2.3248   -1.0361   -0.3585 O   0  0  0  0  0  0  0  0  0  0  0  0
    0.0440   -0.7159    0.4689 C   0  0  0  0  0  0  0  0  0  0  0  0
   -1.0904   -0.8098   -0.4493 C   0  0  0  0  0  0  0  0  0  0  0  0
   -2.3009   -1.2152    0.0545 O   0  0  0  0  0  0  0  0  0  0  0  0
   -1.5539    1.2738    1.5902 H   0  0  0  0  0  0  0  0  0  0  0  0
    0.8137    0.3218   -1.9131 H   0  0  0  0  0  0  0  0  0  0  0  0
    1.1339    1.8266   -0.8486 H   0  0  0  0  0  0  0  0  0  0  0  0
    1.7747    0.4587    0.9644 H   0  0  0  0  0  0  0  0  0  0  0  0
    2.9219   -1.2650    0.4127 H   0  0  0  0  0  0  0  0  0  0  0  0
   -0.1987   -0.7976    1.5673 H   0  0  0  0  0  0  0  0  0  0  0  0
   -0.8775   -1.2380   -1.4730 H   0  0  0  0  0  0  0  0  0  0  0  0
   -2.2837   -2.2207    0.0960 H   0  0  0  0  0  0  0  0  0  0  0  0
  1  2  2  0
  2  3  1  0
  3  4  1  0
  4  5  1  0
  5  6  1  0
  5  7  1  0
  7  8  1  0
  8  9  1  0
  7  3  1  0
  8  3  1  0
  2 10  1  0
  4 11  1  0
  4 12  1  0
  5 13  1  0
  6 14  1  0
  7 15  1  0
  8 16  1  0
  9 17  1  0
M  END
