
     RDKit          3D

 15 16  0  0  0  0  0  0  0  0999 V2000
   -1.9008   -0.9570    1.1530 O   0  0  0  0  0  0  0  0  0  0  0  0
   -1.9365   -0.4666    0.0534 C   0  0  0  0  0  0  0  0  0  0  0  0
   -0.7394    0.1939   -0.4960 C   0  0  0  0  0  0  0  0  0  0  0  0
   -0.1834    1.3002    0.3270 C   0  0  0  0  0  0  0  0  0  0  0  0
    1.1490    1.0377   -0.2962 C   0  0  0  0  0  0  0  0  0  0  0  0
    0.5555   -0.2818    0.1114 C   0  0  0  0  0  0  0  0  0  0  0  0
    1.1116   -1.5093   -0.0655 C   0  0  0  0  0  0  0  0  0  0  0  0
    1.3484   -2.2947    0.8666 O   0  0  0  0  0  0  0  0  0  0  0  0
    0.1611    0.3192    1.2694 O   0  0  0  0  0  0  0  0  0  0  0  0
   -2.8368   -0.5115   -0.5222 H   0  0  0  0  0  0  0  0  0  0  0  0
   -0.7369    0.3153   -1.5878 H   0  0  0  0  0  0  0  0  0  0  0  0
   -0.5982    2.1930    0.5419 H   0  0  0  0  0  0  0  0  0  0  0  0
    1.2423    1.1854   -1.3699 H   0  0  0  0  0  0  0  0  0  0  0  0
    1.9699    1.3786    0.3476 H   0  0  0  0  0  0  0  0  0  0  0  0
    1.3942   -1.9023   -1.0410 H   0  0  0  0  0  0  0  0  0  0  0  0
  1  2  2  0
  2  3  1  0
  3  4  1  0
  4  5  1  0
  5  6  1  0
  6  7  1  0
  7  8  2  0
  6  9  1  0
  6  3  1  0
  9  4  1  0
  2 10  1  0
  3 11  1  0
  4 12  1  0
  5 13  1  0
  5 14  1  0
  7 15  1  0
M  END
