
     RDKit          3D

 19 21  0  0  0  0  0  0  0  0999 V2000
    2.8816    1.0970   -0.7334 O   0  0  0  0  0  0  0  0  0  0  0  0
    2.1279    0.9963    0.2074 C   0  0  0  0  0  0  0  0  0  0  0  0
    1.0045    0.0475    0.1195 C   0  0  0  0  0  0  0  0  0  0  0  0
    0.3098    0.0176   -1.2023 C   0  0  0  0  0  0  0  0  0  0  0  0
   -1.1020   -0.4035   -0.9986 C   0  0  0  0  0  0  0  0  0  0  0  0
   -2.1245    0.4947   -0.4497 C   0  0  0  0  0  0  0  0  0  0  0  0
   -1.3623   -0.3940    0.4474 C   0  0  0  0  0  0  0  0  0  0  0  0
   -0.0950    0.0255    1.0983 C   0  0  0  0  0  0  0  0  0  0  0  0
    0.9659   -1.0530    1.0908 C   0  0  0  0  0  0  0  0  0  0  0  0
    2.3069    1.6046    1.0741 H   0  0  0  0  0  0  0  0  0  0  0  0
    0.8542   -0.5480   -1.9712 H   0  0  0  0  0  0  0  0  0  0  0  0
    0.2725    1.0836   -1.5736 H   0  0  0  0  0  0  0  0  0  0  0  0
   -1.4368   -1.2446   -1.6497 H   0  0  0  0  0  0  0  0  0  0  0  0
   -1.9291    1.5894   -0.2782 H   0  0  0  0  0  0  0  0  0  0  0  0
   -3.1642    0.2823   -0.6787 H   0  0  0  0  0  0  0  0  0  0  0  0
   -1.8087   -1.3283    0.8676 H   0  0  0  0  0  0  0  0  0  0  0  0
   -0.0685    0.8112    1.8760 H   0  0  0  0  0  0  0  0  0  0  0  0
    1.6738   -0.9918    1.9331 H   0  0  0  0  0  0  0  0  0  0  0  0
    0.6940   -2.0865    0.8212 H   0  0  0  0  0  0  0  0  0  0  0  0
  1  2  2  0
  2  3  1  0
  3  4  1  0
  4  5  1  0
  5  6  1  0
  6  7  1  0
  7  8  1  0
  8  9  1  0
  8  3  1  0
  9  3  1  0
  7  5  1  0
  2 10  1  0
  4 11  1  0
  4 12  1  0
  5 13  1  0
  6 14  1  0
  6 15  1  0
  7 16  1  0
  8 17  1  0
  9 18  1  0
  9 19  1  0
M  END
