
     RDKit          3D

 21 22  0  0  0  0  0  0  0  0999 V2000
    3.7061    0.8686   -0.4952 O   0  0  0  0  0  0  0  0  0  0  0  0
    3.1361   -0.1655   -0.1800 C   0  0  0  0  0  0  0  0  0  0  0  0
    1.7599   -0.1277    0.3925 C   0  0  0  0  0  0  0  0  0  0  0  0
    0.8087    0.0743   -0.7535 C   0  0  0  0  0  0  0  0  0  0  0  0
   -0.6117    0.1416   -0.4075 C   0  0  0  0  0  0  0  0  0  0  0  0
   -1.0967    1.2018    0.5159 C   0  0  0  0  0  0  0  0  0  0  0  0
   -2.1530    0.2704    1.0561 C   0  0  0  0  0  0  0  0  0  0  0  0
   -1.4019   -0.8440    0.3212 C   0  0  0  0  0  0  0  0  0  0  0  0
   -1.5336   -0.7792   -1.1276 C   0  0  0  0  0  0  0  0  0  0  0  0
    3.6798   -1.0913   -0.3384 H   0  0  0  0  0  0  0  0  0  0  0  0
    1.5698   -1.0951    0.8786 H   0  0  0  0  0  0  0  0  0  0  0  0
    1.6623    0.6987    1.1273 H   0  0  0  0  0  0  0  0  0  0  0  0
    1.1059    1.0563   -1.2287 H   0  0  0  0  0  0  0  0  0  0  0  0
    1.0044   -0.7386   -1.4850 H   0  0  0  0  0  0  0  0  0  0  0  0
   -1.4508    2.1208    0.0479 H   0  0  0  0  0  0  0  0  0  0  0  0
   -0.3464    1.3844    1.3359 H   0  0  0  0  0  0  0  0  0  0  0  0
   -2.1757    0.1259    2.1385 H   0  0  0  0  0  0  0  0  0  0  0  0
   -3.1475    0.5082    0.6080 H   0  0  0  0  0  0  0  0  0  0  0  0
   -0.9843   -1.6760    0.8896 H   0  0  0  0  0  0  0  0  0  0  0  0
   -2.4522   -0.3574   -1.5918 H   0  0  0  0  0  0  0  0  0  0  0  0
   -1.0794   -1.5761   -1.7172 H   0  0  0  0  0  0  0  0  0  0  0  0
  1  2  2  0
  2  3  1  0
  3  4  1  0
  4  5  1  0
  5  6  1  0
  6  7  1  0
  7  8  1  0
  8  9  1  0
  8  5  1  0
  9  5  1  0
  2 10  1  0
  3 11  1  0
  3 12  1  0
  4 13  1  0
  4 14  1  0
  6 15  1  0
  6 16  1  0
  7 17  1  0
  7 18  1  0
  8 19  1  0
  9 20  1  0
  9 21  1  0
M  END
