
     RDKit          3D

 17 19  0  0  0  0  0  0  0  0999 V2000
    3.1202   -0.6289   -1.1205 O   0  0  0  0  0  0  0  0  0  0  0  0
    2.3318    0.2695   -0.9585 C   0  0  0  0  0  0  0  0  0  0  0  0
    1.2273    0.1718    0.0339 C   0  0  0  0  0  0  0  0  0  0  0  0
    1.1419   -0.9568    0.9796 C   0  0  0  0  0  0  0  0  0  0  0  0
    0.1401   -0.8168   -0.1389 C   0  0  0  0  0  0  0  0  0  0  0  0
   -0.7007    0.3781   -0.0376 C   0  0  0  0  0  0  0  0  0  0  0  0
   -1.8984    0.3340    0.8137 C   0  0  0  0  0  0  0  0  0  0  0  0
   -1.9504    0.6665   -0.6579 C   0  0  0  0  0  0  0  0  0  0  0  0
    0.3525    1.2165    0.1866 O   0  0  0  0  0  0  0  0  0  0  0  0
    2.4178    1.1676   -1.5383 H   0  0  0  0  0  0  0  0  0  0  0  0
    0.7339   -0.6972    1.9957 H   0  0  0  0  0  0  0  0  0  0  0  0
    1.8133   -1.8082    0.9621 H   0  0  0  0  0  0  0  0  0  0  0  0
    0.1896   -1.4721   -1.0174 H   0  0  0  0  0  0  0  0  0  0  0  0
   -2.2412   -0.6842    1.1363 H   0  0  0  0  0  0  0  0  0  0  0  0
   -1.9791    1.1522    1.5595 H   0  0  0  0  0  0  0  0  0  0  0  0
   -2.2226    1.7325   -0.8545 H   0  0  0  0  0  0  0  0  0  0  0  0
   -2.4760   -0.0245   -1.3438 H   0  0  0  0  0  0  0  0  0  0  0  0
  1  2  2  0
  2  3  1  0
  3  4  1  0
  4  5  1  0
  5  6  1  0
  6  7  1  0
  7  8  1  0
  6  9  1  0
  5  3  1  0
  8  6  1  0
  9  3  1  0
  2 10  1  0
  4 11  1  0
  4 12  1  0
  5 13  1  0
  7 14  1  0
  7 15  1  0
  8 16  1  0
  8 17  1  0
M  END
