
     RDKit          3D

 19 20  0  0  0  0  0  0  0  0999 V2000
    3.0728    1.8437    0.4367 O   0  0  0  0  0  0  0  0  0  0  0  0
    2.8083    0.6196    0.3374 C   0  0  0  0  0  0  0  0  0  0  0  0
    1.4187    0.1562    0.1160 C   0  0  0  0  0  0  0  0  0  0  0  0
    0.3836    0.9601    0.0090 C   0  0  0  0  0  0  0  0  0  0  0  0
   -0.8216    0.1595   -0.2019 C   0  0  0  0  0  0  0  0  0  0  0  0
   -0.3313   -1.1362   -0.7518 C   0  0  0  0  0  0  0  0  0  0  0  0
    1.0042   -1.2602   -0.0247 C   0  0  0  0  0  0  0  0  0  0  0  0
   -1.8124    0.2136    0.9050 C   0  0  0  0  0  0  0  0  0  0  0  0
   -2.1336    0.7295   -0.4954 C   0  0  0  0  0  0  0  0  0  0  0  0
    3.6315   -0.0690    0.4201 H   0  0  0  0  0  0  0  0  0  0  0  0
    0.4464    2.0756    0.0732 H   0  0  0  0  0  0  0  0  0  0  0  0
   -0.0902   -1.0079   -1.8270 H   0  0  0  0  0  0  0  0  0  0  0  0
   -0.9854   -1.9941   -0.5927 H   0  0  0  0  0  0  0  0  0  0  0  0
    1.7441   -1.8207   -0.6172 H   0  0  0  0  0  0  0  0  0  0  0  0
    0.7855   -1.7415    0.9418 H   0  0  0  0  0  0  0  0  0  0  0  0
   -2.3198   -0.6779    1.2778 H   0  0  0  0  0  0  0  0  0  0  0  0
   -1.7056    1.0237    1.6834 H   0  0  0  0  0  0  0  0  0  0  0  0
   -2.8643    0.1121   -1.0495 H   0  0  0  0  0  0  0  0  0  0  0  0
   -2.2309    1.8138   -0.6404 H   0  0  0  0  0  0  0  0  0  0  0  0
  1  2  2  0
  2  3  1  0
  3  4  2  0
  4  5  1  0
  5  6  1  0
  6  7  1  0
  5  8  1  0
  8  9  1  0
  7  3  1  0
  9  5  1  0
  2 10  1  0
  4 11  1  0
  6 12  1  0
  6 13  1  0
  7 14  1  0
  7 15  1  0
  8 16  1  0
  8 17  1  0
  9 18  1  0
  9 19  1  0
M  END
