
     RDKit          3D

 16 16  0  0  0  0  0  0  0  0999 V2000
    2.1773    1.2005   -0.7089 O   0  0  0  0  0  0  0  0  0  0  0  0
    2.0803    0.1981   -0.0518 C   0  0  0  0  0  0  0  0  0  0  0  0
    0.7302   -0.2767    0.3433 C   0  0  0  0  0  0  0  0  0  0  0  0
   -0.1651    0.9010    0.7353 C   0  0  0  0  0  0  0  0  0  0  0  0
   -1.5300    0.2984    0.4508 C   0  0  0  0  0  0  0  0  0  0  0  0
   -1.2764   -0.2425   -0.9335 C   0  0  0  0  0  0  0  0  0  0  0  0
   -1.9804   -0.0776   -1.8849 O   0  0  0  0  0  0  0  0  0  0  0  0
    0.0127   -0.9868   -0.7782 C   0  0  0  0  0  0  0  0  0  0  0  0
    2.9248   -0.4095    0.2886 H   0  0  0  0  0  0  0  0  0  0  0  0
    0.7815   -0.9171    1.2574 H   0  0  0  0  0  0  0  0  0  0  0  0
   -0.0454    1.7559    0.0548 H   0  0  0  0  0  0  0  0  0  0  0  0
   -0.0336    1.1870    1.7843 H   0  0  0  0  0  0  0  0  0  0  0  0
   -1.6310   -0.5696    1.1384 H   0  0  0  0  0  0  0  0  0  0  0  0
   -2.3433    1.0106    0.4860 H   0  0  0  0  0  0  0  0  0  0  0  0
   -0.2885   -2.0309   -0.4723 H   0  0  0  0  0  0  0  0  0  0  0  0
    0.5870   -1.0409   -1.7093 H   0  0  0  0  0  0  0  0  0  0  0  0
  1  2  2  0
  2  3  1  0
  3  4  1  0
  4  5  1  0
  5  6  1  0
  6  7  2  0
  6  8  1  0
  8  3  1  0
  2  9  1  0
  3 10  1  0
  4 11  1  0
  4 12  1  0
  5 13  1  0
  5 14  1  0
  8 15  1  0
  8 16  1  0
M  END
