
     RDKit          3D

 14 14  0  0  0  0  0  0  0  0999 V2000
    2.2448   -0.5829    1.2683 O   0  0  0  0  0  0  0  0  0  0  0  0
    1.9470   -0.0972    0.2038 C   0  0  0  0  0  0  0  0  0  0  0  0
    0.5908   -0.1462   -0.2961 C   0  0  0  0  0  0  0  0  0  0  0  0
   -0.4504   -0.5402    0.7065 C   0  0  0  0  0  0  0  0  0  0  0  0
   -1.7035   -0.1492   -0.0908 C   0  0  0  0  0  0  0  0  0  0  0  0
   -1.3211    1.0556   -0.7160 O   0  0  0  0  0  0  0  0  0  0  0  0
    0.0603    1.1974   -0.7210 C   0  0  0  0  0  0  0  0  0  0  0  0
    0.7438    2.2007   -1.0085 O   0  0  0  0  0  0  0  0  0  0  0  0
    2.7212    0.3759   -0.3670 H   0  0  0  0  0  0  0  0  0  0  0  0
    0.4628   -0.8017   -1.1889 H   0  0  0  0  0  0  0  0  0  0  0  0
   -0.4722   -1.6101    0.9351 H   0  0  0  0  0  0  0  0  0  0  0  0
   -0.4550    0.1183    1.5937 H   0  0  0  0  0  0  0  0  0  0  0  0
   -2.5804   -0.0689    0.5471 H   0  0  0  0  0  0  0  0  0  0  0  0
   -1.7881   -0.9515   -0.8662 H   0  0  0  0  0  0  0  0  0  0  0  0
  1  2  2  0
  2  3  1  0
  3  4  1  0
  4  5  1  0
  5  6  1  0
  6  7  1  0
  7  8  2  0
  7  3  1  0
  2  9  1  0
  3 10  1  0
  4 11  1  0
  4 12  1  0
  5 13  1  0
  5 14  1  0
M  END
