
     RDKit          3D

 19 20  0  0  0  0  0  0  0  0999 V2000
   -0.7715    2.2823   -0.5341 O   0  0  0  0  0  0  0  0  0  0  0  0
   -1.1379    1.2414   -1.0412 C   0  0  0  0  0  0  0  0  0  0  0  0
   -0.8142   -0.0280   -0.3947 C   0  0  0  0  0  0  0  0  0  0  0  0
   -1.2889   -1.1569   -1.0716 O   0  0  0  0  0  0  0  0  0  0  0  0
   -1.2438   -0.0540    1.0796 C   0  0  0  0  0  0  0  0  0  0  0  0
    0.1933    0.3628    1.4183 C   0  0  0  0  0  0  0  0  0  0  0  0
    0.5884   -0.1193    0.0868 C   0  0  0  0  0  0  0  0  0  0  0  0
    1.4809   -1.2162   -0.2134 C   0  0  0  0  0  0  0  0  0  0  0  0
    1.7773    0.2114   -0.6472 C   0  0  0  0  0  0  0  0  0  0  0  0
   -1.6957    1.2556   -1.9580 H   0  0  0  0  0  0  0  0  0  0  0  0
   -2.2653   -1.2225   -1.0720 H   0  0  0  0  0  0  0  0  0  0  0  0
   -1.4257   -1.0835    1.4184 H   0  0  0  0  0  0  0  0  0  0  0  0
   -2.0027    0.7009    1.3381 H   0  0  0  0  0  0  0  0  0  0  0  0
    0.6089   -0.1203    2.3112 H   0  0  0  0  0  0  0  0  0  0  0  0
    0.2101    1.4689    1.5596 H   0  0  0  0  0  0  0  0  0  0  0  0
    1.2742   -1.9387   -1.0468 H   0  0  0  0  0  0  0  0  0  0  0  0
    2.0557   -1.6632    0.6088 H   0  0  0  0  0  0  0  0  0  0  0  0
    2.6412    0.6498   -0.1033 H   0  0  0  0  0  0  0  0  0  0  0  0
    1.8156    0.4297   -1.7386 H   0  0  0  0  0  0  0  0  0  0  0  0
  1  2  2  0
  2  3  1  0
  3  4  1  0
  3  5  1  0
  5  6  1  0
  6  7  1  0
  7  8  1  0
  8  9  1  0
  7  3  1  0
  9  7  1  0
  2 10  1  0
  4 11  1  0
  5 12  1  0
  5 13  1  0
  6 14  1  0
  6 15  1  0
  8 16  1  0
  8 17  1  0
  9 18  1  0
  9 19  1  0
M  END
