
     RDKit          3D

 19 19  0  0  0  0  0  0  0  0999 V2000
   -1.5919   -0.4926   -2.1206 O   0  0  0  0  0  0  0  0  0  0  0  0
   -2.1009    0.1418   -1.2181 C   0  0  0  0  0  0  0  0  0  0  0  0
   -1.5350    0.1858    0.1510 C   0  0  0  0  0  0  0  0  0  0  0  0
   -2.2375    0.9567    1.0664 O   0  0  0  0  0  0  0  0  0  0  0  0
   -0.9407   -1.1259    0.6081 C   0  0  0  0  0  0  0  0  0  0  0  0
   -0.0769    0.0374    0.3728 C   0  0  0  0  0  0  0  0  0  0  0  0
    0.8368    0.1248   -0.8157 C   0  0  0  0  0  0  0  0  0  0  0  0
    2.2936   -0.0534   -0.3719 C   0  0  0  0  0  0  0  0  0  0  0  0
    2.6501    0.9448    0.5440 O   0  0  0  0  0  0  0  0  0  0  0  0
   -3.0025    0.6957   -1.4239 H   0  0  0  0  0  0  0  0  0  0  0  0
   -2.2850    0.4618    1.9394 H   0  0  0  0  0  0  0  0  0  0  0  0
   -1.2035   -1.4035    1.6572 H   0  0  0  0  0  0  0  0  0  0  0  0
   -0.8845   -1.9794   -0.0922 H   0  0  0  0  0  0  0  0  0  0  0  0
    0.3353    0.5238    1.2866 H   0  0  0  0  0  0  0  0  0  0  0  0
    0.6474   -0.7441   -1.5030 H   0  0  0  0  0  0  0  0  0  0  0  0
    0.7574    1.0737   -1.3691 H   0  0  0  0  0  0  0  0  0  0  0  0
    2.3611   -1.0324    0.1508 H   0  0  0  0  0  0  0  0  0  0  0  0
    2.9688   -0.0072   -1.2501 H   0  0  0  0  0  0  0  0  0  0  0  0
    3.0078    1.6922    0.0010 H   0  0  0  0  0  0  0  0  0  0  0  0
  1  2  2  0
  2  3  1  0
  3  4  1  0
  3  5  1  0
  5  6  1  0
  6  7  1  0
  7  8  1  0
  8  9  1  0
  6  3  1  0
  2 10  1  0
  4 11  1  0
  5 12  1  0
  5 13  1  0
  6 14  1  0
  7 15  1  0
  7 16  1  0
  8 17  1  0
  8 18  1  0
  9 19  1  0
M  END
