
     RDKit          3D

 18 18  0  0  0  0  0  0  0  0999 V2000
    2.8080    0.8065   -0.2127 O   0  0  0  0  0  0  0  0  0  0  0  0
    2.2776   -0.0548    0.4333 C   0  0  0  0  0  0  0  0  0  0  0  0
    1.0729   -0.7326   -0.0695 C   0  0  0  0  0  0  0  0  0  0  0  0
   -0.2010    0.0370    0.0405 C   0  0  0  0  0  0  0  0  0  0  0  0
   -1.4233   -0.7324   -0.4971 C   0  0  0  0  0  0  0  0  0  0  0  0
   -1.5537   -1.8980    0.2391 O   0  0  0  0  0  0  0  0  0  0  0  0
   -0.1084    1.4916   -0.4239 C   0  0  0  0  0  0  0  0  0  0  0  0
   -0.4430    1.0949    1.0162 C   0  0  0  0  0  0  0  0  0  0  0  0
    2.6867   -0.3336    1.3911 H   0  0  0  0  0  0  0  0  0  0  0  0
    0.9525   -1.7291    0.4621 H   0  0  0  0  0  0  0  0  0  0  0  0
    1.2636   -1.0529   -1.1334 H   0  0  0  0  0  0  0  0  0  0  0  0
   -1.1736   -0.9948   -1.5526 H   0  0  0  0  0  0  0  0  0  0  0  0
   -2.3260   -0.1313   -0.3768 H   0  0  0  0  0  0  0  0  0  0  0  0
   -2.4774   -2.2498    0.2563 H   0  0  0  0  0  0  0  0  0  0  0  0
   -0.9686    1.8716   -1.0446 H   0  0  0  0  0  0  0  0  0  0  0  0
    0.8695    1.9732   -0.5559 H   0  0  0  0  0  0  0  0  0  0  0  0
   -1.5156    1.2718    1.3192 H   0  0  0  0  0  0  0  0  0  0  0  0
    0.2598    1.3626    1.8208 H   0  0  0  0  0  0  0  0  0  0  0  0
  1  2  2  0
  2  3  1  0
  3  4  1  0
  4  5  1  0
  5  6  1  0
  4  7  1  0
  7  8  1  0
  8  4  1  0
  2  9  1  0
  3 10  1  0
  3 11  1  0
  5 12  1  0
  5 13  1  0
  6 14  1  0
  7 15  1  0
  7 16  1  0
  8 17  1  0
  8 18  1  0
M  END
