
     RDKit          3D

 15 15  0  0  0  0  0  0  0  0999 V2000
   -0.3142    2.4974    0.9469 O   0  0  0  0  0  0  0  0  0  0  0  0
   -0.3285    1.3175    1.1998 C   0  0  0  0  0  0  0  0  0  0  0  0
   -0.0367    0.3424    0.1207 C   0  0  0  0  0  0  0  0  0  0  0  0
   -1.2247   -0.5561   -0.2174 C   0  0  0  0  0  0  0  0  0  0  0  0
   -0.8161   -1.3417   -1.2955 O   0  0  0  0  0  0  0  0  0  0  0  0
    1.2250   -0.5016    0.2778 C   0  0  0  0  0  0  0  0  0  0  0  0
    1.1018    0.5589   -0.7469 C   0  0  0  0  0  0  0  0  0  0  0  0
   -0.5408    1.0174    2.2206 H   0  0  0  0  0  0  0  0  0  0  0  0
   -1.4875   -1.1579    0.6474 H   0  0  0  0  0  0  0  0  0  0  0  0
   -2.0962    0.0827   -0.5435 H   0  0  0  0  0  0  0  0  0  0  0  0
   -1.3887   -2.1576   -1.3415 H   0  0  0  0  0  0  0  0  0  0  0  0
    1.8364   -0.3872    1.1835 H   0  0  0  0  0  0  0  0  0  0  0  0
    1.2004   -1.5333   -0.1126 H   0  0  0  0  0  0  0  0  0  0  0  0
    1.7207    1.4872   -0.5060 H   0  0  0  0  0  0  0  0  0  0  0  0
    1.1492    0.3320   -1.8333 H   0  0  0  0  0  0  0  0  0  0  0  0
  1  2  2  0
  2  3  1  0
  3  4  1  0
  4  5  1  0
  3  6  1  0
  6  7  1  0
  7  3  1  0
  2  8  1  0
  4  9  1  0
  4 10  1  0
  5 11  1  0
  6 12  1  0
  6 13  1  0
  7 14  1  0
  7 15  1  0
M  END
