
     RDKit          3D

 17 18  0  0  0  0  0  0  0  0999 V2000
    3.0834    0.9602   -0.1632 O   0  0  0  0  0  0  0  0  0  0  0  0
    2.5612   -0.0423   -0.6173 C   0  0  0  0  0  0  0  0  0  0  0  0
    1.4862   -0.7305    0.1647 C   0  0  0  0  0  0  0  0  0  0  0  0
    0.4960    0.3186    0.5673 C   0  0  0  0  0  0  0  0  0  0  0  0
   -0.5748   -0.2049    1.3100 O   0  0  0  0  0  0  0  0  0  0  0  0
   -1.6277    0.4036    0.7295 C   0  0  0  0  0  0  0  0  0  0  0  0
   -2.5095    0.0863   -0.3249 C   0  0  0  0  0  0  0  0  0  0  0  0
   -1.1576    0.0003   -0.7312 C   0  0  0  0  0  0  0  0  0  0  0  0
   -0.0656    0.8244   -0.6392 O   0  0  0  0  0  0  0  0  0  0  0  0
    2.8449   -0.4598   -1.5831 H   0  0  0  0  0  0  0  0  0  0  0  0
    1.9889   -1.1422    1.0928 H   0  0  0  0  0  0  0  0  0  0  0  0
    1.1010   -1.5937   -0.3516 H   0  0  0  0  0  0  0  0  0  0  0  0
    0.9758    1.0937    1.1517 H   0  0  0  0  0  0  0  0  0  0  0  0
   -1.5589    1.5184    0.9522 H   0  0  0  0  0  0  0  0  0  0  0  0
   -3.1503    0.8746   -0.7908 H   0  0  0  0  0  0  0  0  0  0  0  0
   -3.1270   -0.8470   -0.2122 H   0  0  0  0  0  0  0  0  0  0  0  0
   -0.7659   -1.0597   -0.8350 H   0  0  0  0  0  0  0  0  0  0  0  0
  1  2  2  0
  2  3  1  0
  3  4  1  0
  4  5  1  0
  5  6  1  0
  6  7  1  0
  7  8  1  0
  8  9  1  0
  9  4  1  0
  8  6  1  0
  2 10  1  0
  3 11  1  0
  3 12  1  0
  4 13  1  0
  6 14  1  0
  7 15  1  0
  7 16  1  0
  8 17  1  0
M  END
