
     RDKit          3D

 17 17  0  0  0  0  0  0  0  0999 V2000
    4.1561   -0.9879    0.3096 O   0  0  0  0  0  0  0  0  0  0  0  0
    3.5144    0.0868    0.1714 C   0  0  0  0  0  0  0  0  0  0  0  0
    2.0856    0.0391    0.0282 C   0  0  0  0  0  0  0  0  0  0  0  0
    0.8856    0.0142   -0.0790 C   0  0  0  0  0  0  0  0  0  0  0  0
   -0.5575   -0.0180   -0.1985 C   0  0  0  0  0  0  0  0  0  0  0  0
   -1.2748   -0.2148    1.1311 C   0  0  0  0  0  0  0  0  0  0  0  0
   -0.9885    0.7999    2.0275 O   0  0  0  0  0  0  0  0  0  0  0  0
   -1.2011   -0.6869   -1.3438 C   0  0  0  0  0  0  0  0  0  0  0  0
   -1.1566    0.8077   -1.2651 C   0  0  0  0  0  0  0  0  0  0  0  0
    4.0869    1.0051    0.1682 H   0  0  0  0  0  0  0  0  0  0  0  0
   -2.3604   -0.3231    0.9238 H   0  0  0  0  0  0  0  0  0  0  0  0
   -0.9262   -1.1800    1.5416 H   0  0  0  0  0  0  0  0  0  0  0  0
   -0.9581    0.3930    2.9297 H   0  0  0  0  0  0  0  0  0  0  0  0
   -0.5388   -1.2489   -2.0158 H   0  0  0  0  0  0  0  0  0  0  0  0
   -2.2177   -1.1450   -1.2378 H   0  0  0  0  0  0  0  0  0  0  0  0
   -2.0803    1.3689   -1.1019 H   0  0  0  0  0  0  0  0  0  0  0  0
   -0.4685    1.2900   -1.9892 H   0  0  0  0  0  0  0  0  0  0  0  0
  1  2  2  0
  2  3  1  0
  3  4  3  0
  4  5  1  0
  5  6  1  0
  6  7  1  0
  5  8  1  0
  8  9  1  0
  9  5  1  0
  2 10  1  0
  6 11  1  0
  6 12  1  0
  7 13  1  0
  8 14  1  0
  8 15  1  0
  9 16  1  0
  9 17  1  0
M  END
