
     RDKit          3D

 21 21  0  0  0  0  0  0  0  0999 V2000
   -2.9581    1.8069   -0.9542 O   0  0  0  0  0  0  0  0  0  0  0  0
   -2.8695    0.6063   -1.1387 C   0  0  0  0  0  0  0  0  0  0  0  0
   -1.8340   -0.2159   -0.4366 C   0  0  0  0  0  0  0  0  0  0  0  0
   -1.0071    0.6755    0.4590 C   0  0  0  0  0  0  0  0  0  0  0  0
    0.0217   -0.1778    1.1486 C   0  0  0  0  0  0  0  0  0  0  0  0
    0.9516   -0.8817    0.2415 C   0  0  0  0  0  0  0  0  0  0  0  0
    1.8422   -0.1357   -0.7074 C   0  0  0  0  0  0  0  0  0  0  0  0
    2.4441   -0.6413    0.5407 C   0  0  0  0  0  0  0  0  0  0  0  0
    2.7558    0.3060    1.5136 O   0  0  0  0  0  0  0  0  0  0  0  0
   -3.5652    0.1639   -1.8258 H   0  0  0  0  0  0  0  0  0  0  0  0
   -1.1639   -0.7396   -1.1454 H   0  0  0  0  0  0  0  0  0  0  0  0
   -2.3741   -0.9306    0.2321 H   0  0  0  0  0  0  0  0  0  0  0  0
   -0.5968    1.5522   -0.0389 H   0  0  0  0  0  0  0  0  0  0  0  0
   -1.7048    1.0375    1.2522 H   0  0  0  0  0  0  0  0  0  0  0  0
   -0.5649   -0.9686    1.7040 H   0  0  0  0  0  0  0  0  0  0  0  0
    0.5962    0.4239    1.8760 H   0  0  0  0  0  0  0  0  0  0  0  0
    0.6807   -1.9339   -0.0659 H   0  0  0  0  0  0  0  0  0  0  0  0
    2.1194   -0.5946   -1.6641 H   0  0  0  0  0  0  0  0  0  0  0  0
    1.6183    0.9547   -0.7605 H   0  0  0  0  0  0  0  0  0  0  0  0
    3.1004   -1.5364    0.5327 H   0  0  0  0  0  0  0  0  0  0  0  0
    2.5079    1.2292    1.2459 H   0  0  0  0  0  0  0  0  0  0  0  0
  1  2  2  0
  2  3  1  0
  3  4  1  0
  4  5  1  0
  5  6  1  0
  6  7  1  0
  7  8  1  0
  8  9  1  0
  8  6  1  0
  2 10  1  0
  3 11  1  0
  3 12  1  0
  4 13  1  0
  4 14  1  0
  5 15  1  0
  5 16  1  0
  6 17  1  0
  7 18  1  0
  7 19  1  0
  8 20  1  0
  9 21  1  0
M  END
