
     RDKit          3D

 19 20  0  0  0  0  0  0  0  0999 V2000
    2.6229   -0.1334    1.1612 O   0  0  0  0  0  0  0  0  0  0  0  0
    2.2571    0.2532    0.0615 C   0  0  0  0  0  0  0  0  0  0  0  0
    0.8942    0.0374   -0.4436 C   0  0  0  0  0  0  0  0  0  0  0  0
    0.3381   -1.2846    0.0964 C   0  0  0  0  0  0  0  0  0  0  0  0
   -1.0311   -1.4329   -0.5103 C   0  0  0  0  0  0  0  0  0  0  0  0
   -1.8982   -0.4397   -0.2349 O   0  0  0  0  0  0  0  0  0  0  0  0
   -1.4716    0.8296   -0.2152 C   0  0  0  0  0  0  0  0  0  0  0  0
   -0.7967    1.2597    1.1148 C   0  0  0  0  0  0  0  0  0  0  0  0
   -0.0604    1.1411   -0.1566 C   0  0  0  0  0  0  0  0  0  0  0  0
    2.9981    0.7736   -0.5379 H   0  0  0  0  0  0  0  0  0  0  0  0
    0.9092   -0.1045   -1.5645 H   0  0  0  0  0  0  0  0  0  0  0  0
    0.3540   -1.3266    1.1893 H   0  0  0  0  0  0  0  0  0  0  0  0
    0.9841   -2.0800   -0.3794 H   0  0  0  0  0  0  0  0  0  0  0  0
   -1.4444   -2.4018   -0.1145 H   0  0  0  0  0  0  0  0  0  0  0  0
   -0.8732   -1.6056   -1.6120 H   0  0  0  0  0  0  0  0  0  0  0  0
   -2.1907    1.5870   -0.6443 H   0  0  0  0  0  0  0  0  0  0  0  0
   -0.7506    0.5212    1.9203 H   0  0  0  0  0  0  0  0  0  0  0  0
   -1.0911    2.2772    1.4794 H   0  0  0  0  0  0  0  0  0  0  0  0
    0.2504    2.1290   -0.6096 H   0  0  0  0  0  0  0  0  0  0  0  0
  1  2  2  0
  2  3  1  0
  3  4  1  0
  4  5  1  0
  5  6  1  0
  6  7  1  0
  7  8  1  0
  8  9  1  0
  9  3  1  0
  9  7  1  0
  2 10  1  0
  3 11  1  0
  4 12  1  0
  4 13  1  0
  5 14  1  0
  5 15  1  0
  7 16  1  0
  8 17  1  0
  8 18  1  0
  9 19  1  0
M  END
