
     RDKit          3D

 17 17  0  0  0  0  0  0  0  0999 V2000
    2.8565    1.1685   -0.4680 O   0  0  0  0  0  0  0  0  0  0  0  0
    1.6566    1.4562   -0.3306 C   0  0  0  0  0  0  0  0  0  0  0  0
    0.6822    0.4136   -0.0870 C   0  0  0  0  0  0  0  0  0  0  0  0
   -0.6116    0.5455    0.0796 C   0  0  0  0  0  0  0  0  0  0  0  0
   -1.3818    1.7832    0.0589 C   0  0  0  0  0  0  0  0  0  0  0  0
   -0.8630    2.9028   -0.1292 O   0  0  0  0  0  0  0  0  0  0  0  0
   -1.2661   -0.7790    0.3079 C   0  0  0  0  0  0  0  0  0  0  0  0
   -0.1998   -1.7740   -0.0404 C   0  0  0  0  0  0  0  0  0  0  0  0
    1.0891   -1.0234    0.0050 C   0  0  0  0  0  0  0  0  0  0  0  0
    1.3382    2.4675   -0.3909 H   0  0  0  0  0  0  0  0  0  0  0  0
   -2.4754    1.7912    0.2104 H   0  0  0  0  0  0  0  0  0  0  0  0
   -2.1523   -0.8299   -0.3504 H   0  0  0  0  0  0  0  0  0  0  0  0
   -1.6228   -0.8535    1.3504 H   0  0  0  0  0  0  0  0  0  0  0  0
   -0.1351   -2.6027    0.6982 H   0  0  0  0  0  0  0  0  0  0  0  0
   -0.3584   -2.2312   -1.0382 H   0  0  0  0  0  0  0  0  0  0  0  0
    1.6546   -1.1567    0.9499 H   0  0  0  0  0  0  0  0  0  0  0  0
    1.7892   -1.2780   -0.8257 H   0  0  0  0  0  0  0  0  0  0  0  0
  1  2  2  0
  2  3  1  0
  3  4  2  0
  4  5  1  0
  5  6  2  0
  4  7  1  0
  7  8  1  0
  8  9  1  0
  9  3  1  0
  2 10  1  0
  5 11  1  0
  7 12  1  0
  7 13  1  0
  8 14  1  0
  8 15  1  0
  9 16  1  0
  9 17  1  0
M  END
