
     RDKit          3D

 16 17  0  0  0  0  0  0  0  0999 V2000
    2.2873   -1.0711    0.9738 O   0  0  0  0  0  0  0  0  0  0  0  0
    2.0025    0.0826    0.7130 C   0  0  0  0  0  0  0  0  0  0  0  0
    1.3432    0.5027   -0.5209 C   0  0  0  0  0  0  0  0  0  0  0  0
   -0.1295    0.3697   -0.5530 C   0  0  0  0  0  0  0  0  0  0  0  0
   -0.7053   -0.9724   -0.3750 C   0  0  0  0  0  0  0  0  0  0  0  0
   -1.9806   -0.3115    0.0623 C   0  0  0  0  0  0  0  0  0  0  0  0
   -0.8626    0.3708    0.7468 C   0  0  0  0  0  0  0  0  0  0  0  0
   -0.3272   -0.8939    0.9603 O   0  0  0  0  0  0  0  0  0  0  0  0
    2.2614    0.8278    1.4531 H   0  0  0  0  0  0  0  0  0  0  0  0
    1.7613   -0.1335   -1.3527 H   0  0  0  0  0  0  0  0  0  0  0  0
    1.6009    1.5612   -0.8127 H   0  0  0  0  0  0  0  0  0  0  0  0
   -0.6293    1.0153   -1.3253 H   0  0  0  0  0  0  0  0  0  0  0  0
   -0.6287   -1.7809   -0.9728 H   0  0  0  0  0  0  0  0  0  0  0  0
   -2.6060   -0.8719    0.7572 H   0  0  0  0  0  0  0  0  0  0  0  0
   -2.4930    0.1887   -0.7570 H   0  0  0  0  0  0  0  0  0  0  0  0
   -0.8945    1.1164    1.4257 H   0  0  0  0  0  0  0  0  0  0  0  0
  1  2  2  0
  2  3  1  0
  3  4  1  0
  4  5  1  0
  5  6  1  0
  6  7  1  0
  7  8  1  0
  7  4  1  0
  8  5  1  0
  2  9  1  0
  3 10  1  0
  3 11  1  0
  4 12  1  0
  5 13  1  0
  6 14  1  0
  6 15  1  0
  7 16  1  0
M  END
