
     RDKit          3D

 17 18  0  0  0  0  0  0  0  0999 V2000
   -2.6028   -0.3581   -1.3978 O   0  0  0  0  0  0  0  0  0  0  0  0
   -2.0494   -0.5670   -0.3374 C   0  0  0  0  0  0  0  0  0  0  0  0
   -1.1041    0.3597    0.3319 C   0  0  0  0  0  0  0  0  0  0  0  0
   -0.8955    1.5266   -0.3771 O   0  0  0  0  0  0  0  0  0  0  0  0
    0.1689   -0.3830    0.6301 C   0  0  0  0  0  0  0  0  0  0  0  0
    0.8498   -0.9304   -0.6166 C   0  0  0  0  0  0  0  0  0  0  0  0
    1.9126    0.1579   -0.4016 C   0  0  0  0  0  0  0  0  0  0  0  0
    2.6262    0.0155    0.7799 O   0  0  0  0  0  0  0  0  0  0  0  0
    1.3314    0.5743    0.7555 C   0  0  0  0  0  0  0  0  0  0  0  0
   -2.2572   -1.5003    0.1645 H   0  0  0  0  0  0  0  0  0  0  0  0
   -1.5430    0.6524    1.3171 H   0  0  0  0  0  0  0  0  0  0  0  0
   -1.6588    2.1374   -0.2885 H   0  0  0  0  0  0  0  0  0  0  0  0
    0.1324   -1.0688    1.4750 H   0  0  0  0  0  0  0  0  0  0  0  0
    0.2763   -0.8191   -1.5381 H   0  0  0  0  0  0  0  0  0  0  0  0
    1.2267   -1.9565   -0.5158 H   0  0  0  0  0  0  0  0  0  0  0  0
    2.3513    0.6467   -1.2766 H   0  0  0  0  0  0  0  0  0  0  0  0
    1.2353    1.5126    1.2955 H   0  0  0  0  0  0  0  0  0  0  0  0
  1  2  2  0
  2  3  1  0
  3  4  1  0
  3  5  1  0
  5  6  1  0
  6  7  1  0
  7  8  1  0
  8  9  1  0
  9  5  1  0
  9  7  1  0
  2 10  1  0
  3 11  1  0
  4 12  1  0
  5 13  1  0
  6 14  1  0
  6 15  1  0
  7 16  1  0
  9 17  1  0
M  END
