
     RDKit          3D

  8  7  0  0  0  0  0  0  0  0999 V2000
   -1.2281   -1.3744    0.3956 O   0  0  0  0  0  0  0  0  0  0  0  0
   -1.2150   -0.2385   -0.1540 C   0  0  0  0  0  0  0  0  0  0  0  0
    0.0220    0.5150   -0.2456 C   0  0  0  0  0  0  0  0  0  0  0  0
   -0.0084    1.6472   -0.8032 O   0  0  0  0  0  0  0  0  0  0  0  0
    1.2256   -0.0621    0.3026 C   0  0  0  0  0  0  0  0  0  0  0  0
    1.1646   -1.1944    0.8398 O   0  0  0  0  0  0  0  0  0  0  0  0
   -2.1148    0.2100   -0.5721 H   0  0  0  0  0  0  0  0  0  0  0  0
    2.1542    0.4972    0.2369 H   0  0  0  0  0  0  0  0  0  0  0  0
  1  2  2  0
  2  3  1  0
  3  4  2  0
  3  5  1  0
  5  6  2  0
  2  7  1  0
  5  8  1  0
M  END
