
     RDKit          3D

 15 16  0  0  0  0  0  0  0  0999 V2000
    2.3313   -1.0445    1.2373 O   0  0  0  0  0  0  0  0  0  0  0  0
    2.3287   -0.3757    0.2194 C   0  0  0  0  0  0  0  0  0  0  0  0
    1.0285    0.0905   -0.3240 C   0  0  0  0  0  0  0  0  0  0  0  0
   -0.0232    0.5708    0.5864 C   0  0  0  0  0  0  0  0  0  0  0  0
   -1.2964    1.0273   -0.1182 C   0  0  0  0  0  0  0  0  0  0  0  0
   -1.5232   -0.4382   -0.4526 C   0  0  0  0  0  0  0  0  0  0  0  0
   -0.1239   -0.7772   -0.1064 C   0  0  0  0  0  0  0  0  0  0  0  0
    3.2909   -0.1623   -0.2288 H   0  0  0  0  0  0  0  0  0  0  0  0
    1.1529    0.6955   -1.2611 H   0  0  0  0  0  0  0  0  0  0  0  0
    0.0331    0.5598    1.6673 H   0  0  0  0  0  0  0  0  0  0  0  0
   -2.0441    1.4979    0.5161 H   0  0  0  0  0  0  0  0  0  0  0  0
   -1.0396    1.5606   -1.0713 H   0  0  0  0  0  0  0  0  0  0  0  0
   -1.8904   -0.6514   -1.4550 H   0  0  0  0  0  0  0  0  0  0  0  0
   -2.2414   -0.8548    0.3102 H   0  0  0  0  0  0  0  0  0  0  0  0
    0.0168   -1.6982    0.4807 H   0  0  0  0  0  0  0  0  0  0  0  0
  1  2  2  0
  2  3  1  0
  3  4  1  0
  4  5  1  0
  5  6  1  0
  6  7  1  0
  7  3  1  0
  7  4  1  0
  2  8  1  0
  3  9  1  0
  4 10  1  0
  5 11  1  0
  5 12  1  0
  6 13  1  0
  6 14  1  0
  7 15  1  0
M  END
