
     RDKit          3D

 19 20  0  0  0  0  0  0  0  0999 V2000
    3.5662   -0.3118   -0.4120 O   0  0  0  0  0  0  0  0  0  0  0  0
    2.5658   -0.3846    0.2737 C   0  0  0  0  0  0  0  0  0  0  0  0
    1.2765    0.1017   -0.2523 C   0  0  0  0  0  0  0  0  0  0  0  0
    0.7251    1.1988    0.6098 C   0  0  0  0  0  0  0  0  0  0  0  0
   -0.5634    1.4630    0.4995 C   0  0  0  0  0  0  0  0  0  0  0  0
   -1.4472    0.7224   -0.4281 C   0  0  0  0  0  0  0  0  0  0  0  0
   -2.1855   -0.4918    0.0634 C   0  0  0  0  0  0  0  0  0  0  0  0
   -0.9847   -0.6168   -0.7981 C   0  0  0  0  0  0  0  0  0  0  0  0
    0.2709   -1.0436   -0.1035 C   0  0  0  0  0  0  0  0  0  0  0  0
    2.5812   -0.7986    1.2717 H   0  0  0  0  0  0  0  0  0  0  0  0
    1.3215    0.4849   -1.2713 H   0  0  0  0  0  0  0  0  0  0  0  0
    1.4101    1.6988    1.2602 H   0  0  0  0  0  0  0  0  0  0  0  0
   -0.9726    2.2446    1.1093 H   0  0  0  0  0  0  0  0  0  0  0  0
   -2.0396    1.3449   -1.1603 H   0  0  0  0  0  0  0  0  0  0  0  0
   -2.1403   -0.7725    1.1386 H   0  0  0  0  0  0  0  0  0  0  0  0
   -3.1429   -0.7525   -0.4254 H   0  0  0  0  0  0  0  0  0  0  0  0
   -1.0676   -0.9845   -1.8434 H   0  0  0  0  0  0  0  0  0  0  0  0
    0.7119   -1.9515   -0.5265 H   0  0  0  0  0  0  0  0  0  0  0  0
    0.1146   -1.1508    0.9945 H   0  0  0  0  0  0  0  0  0  0  0  0
  1  2  2  0
  2  3  1  0
  3  4  1  0
  4  5  2  0
  5  6  1  0
  6  7  1  0
  7  8  1  0
  8  9  1  0
  9  3  1  0
  8  6  1  0
  2 10  1  0
  3 11  1  0
  4 12  1  0
  5 13  1  0
  6 14  1  0
  7 15  1  0
  7 16  1  0
  8 17  1  0
  9 18  1  0
  9 19  1  0
M  END
