
     RDKit          3D

 16 16  0  0  0  0  0  0  0  0999 V2000
    2.9420    0.3637    0.0792 O   0  0  0  0  0  0  0  0  0  0  0  0
    2.0726   -0.1772   -0.5656 C   0  0  0  0  0  0  0  0  0  0  0  0
    0.7836   -0.4657    0.0976 C   0  0  0  0  0  0  0  0  0  0  0  0
   -0.1221   -1.0886   -0.7621 O   0  0  0  0  0  0  0  0  0  0  0  0
   -1.3807   -0.8920   -0.2650 C   0  0  0  0  0  0  0  0  0  0  0  0
   -1.2921    0.1749    0.8125 C   0  0  0  0  0  0  0  0  0  0  0  0
    0.0134    0.8252    0.3996 C   0  0  0  0  0  0  0  0  0  0  0  0
   -0.1400    1.4753   -0.7945 O   0  0  0  0  0  0  0  0  0  0  0  0
    2.1787   -0.4659   -1.6053 H   0  0  0  0  0  0  0  0  0  0  0  0
    0.8712   -1.0936    0.9920 H   0  0  0  0  0  0  0  0  0  0  0  0
   -2.0009   -0.4548   -1.1002 H   0  0  0  0  0  0  0  0  0  0  0  0
   -1.8281   -1.8254    0.1146 H   0  0  0  0  0  0  0  0  0  0  0  0
   -1.1731   -0.3562    1.7809 H   0  0  0  0  0  0  0  0  0  0  0  0
   -2.1401    0.8632    0.8119 H   0  0  0  0  0  0  0  0  0  0  0  0
    0.4793    1.4055    1.2014 H   0  0  0  0  0  0  0  0  0  0  0  0
    0.7361    1.7118   -1.1970 H   0  0  0  0  0  0  0  0  0  0  0  0
  1  2  2  0
  2  3  1  0
  3  4  1  0
  4  5  1  0
  5  6  1  0
  6  7  1  0
  7  8  1  0
  7  3  1  0
  2  9  1  0
  3 10  1  0
  5 11  1  0
  5 12  1  0
  6 13  1  0
  6 14  1  0
  7 15  1  0
  8 16  1  0
M  END
