
     RDKit          3D

 15 16  0  0  0  0  0  0  0  0999 V2000
   -2.8786    0.9627   -0.3994 O   0  0  0  0  0  0  0  0  0  0  0  0
   -2.2309   -0.0547   -0.2688 C   0  0  0  0  0  0  0  0  0  0  0  0
   -0.8996   -0.0251    0.3894 C   0  0  0  0  0  0  0  0  0  0  0  0
   -0.3343   -1.3000    0.4323 O   0  0  0  0  0  0  0  0  0  0  0  0
    0.9040   -1.1631   -0.1802 C   0  0  0  0  0  0  0  0  0  0  0  0
    1.7736   -0.2224    0.5879 C   0  0  0  0  0  0  0  0  0  0  0  0
    1.2772    0.9924    0.3536 C   0  0  0  0  0  0  0  0  0  0  0  0
    0.0680    0.7345   -0.4767 C   0  0  0  0  0  0  0  0  0  0  0  0
    0.5567   -0.3306   -1.2748 O   0  0  0  0  0  0  0  0  0  0  0  0
   -2.6308   -0.9775   -0.6345 H   0  0  0  0  0  0  0  0  0  0  0  0
   -0.9243    0.3806    1.4104 H   0  0  0  0  0  0  0  0  0  0  0  0
    1.3822   -2.0787   -0.4753 H   0  0  0  0  0  0  0  0  0  0  0  0
    2.6285   -0.4479    1.2089 H   0  0  0  0  0  0  0  0  0  0  0  0
    1.6245    1.9682    0.6648 H   0  0  0  0  0  0  0  0  0  0  0  0
   -0.3160    1.5615   -1.0250 H   0  0  0  0  0  0  0  0  0  0  0  0
  1  2  2  0
  2  3  1  0
  3  4  1  0
  4  5  1  0
  5  6  1  0
  6  7  2  0
  7  8  1  0
  8  9  1  0
  8  3  1  0
  9  5  1  0
  2 10  1  0
  3 11  1  0
  5 12  1  0
  6 13  1  0
  7 14  1  0
  8 15  1  0
M  END
