
     RDKit          3D

 19 20  0  0  0  0  0  0  0  0999 V2000
    2.7725    0.3432    1.9173 O   0  0  0  0  0  0  0  0  0  0  0  0
    2.3168   -0.3743    1.0518 C   0  0  0  0  0  0  0  0  0  0  0  0
    1.1177    0.0054    0.3241 C   0  0  0  0  0  0  0  0  0  0  0  0
   -0.1874    0.2293    1.0372 C   0  0  0  0  0  0  0  0  0  0  0  0
   -0.8901   -0.5716   -0.0470 C   0  0  0  0  0  0  0  0  0  0  0  0
   -1.8329    0.2906   -0.8169 C   0  0  0  0  0  0  0  0  0  0  0  0
   -2.8004    0.8203    0.0512 O   0  0  0  0  0  0  0  0  0  0  0  0
    0.4413   -0.8232   -0.6670 C   0  0  0  0  0  0  0  0  0  0  0  0
    1.2009    0.3753   -1.1012 C   0  0  0  0  0  0  0  0  0  0  0  0
    2.8204   -1.2998    0.8339 H   0  0  0  0  0  0  0  0  0  0  0  0
   -0.2986   -0.2336    2.0160 H   0  0  0  0  0  0  0  0  0  0  0  0
   -0.4334    1.3121    1.0486 H   0  0  0  0  0  0  0  0  0  0  0  0
   -1.4232   -1.4540    0.3585 H   0  0  0  0  0  0  0  0  0  0  0  0
   -1.3412    1.1637   -1.2878 H   0  0  0  0  0  0  0  0  0  0  0  0
   -2.3290   -0.3513   -1.5821 H   0  0  0  0  0  0  0  0  0  0  0  0
   -2.7283    0.3670    0.9287 H   0  0  0  0  0  0  0  0  0  0  0  0
    0.7625   -1.8426   -0.9419 H   0  0  0  0  0  0  0  0  0  0  0  0
    0.6840    1.2765   -1.4841 H   0  0  0  0  0  0  0  0  0  0  0  0
    2.1485    0.1685   -1.6389 H   0  0  0  0  0  0  0  0  0  0  0  0
  1  2  2  0
  2  3  1  0
  3  4  1  0
  4  5  1  0
  5  6  1  0
  6  7  1  0
  5  8  1  0
  8  9  1  0
  8  3  1  0
  9  3  1  0
  2 10  1  0
  4 11  1  0
  4 12  1  0
  5 13  1  0
  6 14  1  0
  6 15  1  0
  7 16  1  0
  8 17  1  0
  9 18  1  0
  9 19  1  0
M  END
