
     RDKit          3D

 17 18  0  0  0  0  0  0  0  0999 V2000
   -2.3380   -1.6809   -0.0970 O   0  0  0  0  0  0  0  0  0  0  0  0
   -1.1747   -1.4351   -0.3654 C   0  0  0  0  0  0  0  0  0  0  0  0
   -0.6329   -0.0551   -0.2341 C   0  0  0  0  0  0  0  0  0  0  0  0
   -1.6512    1.0258   -0.3750 C   0  0  0  0  0  0  0  0  0  0  0  0
   -1.1573    0.7623    0.9916 C   0  0  0  0  0  0  0  0  0  0  0  0
    0.1440    1.2199    1.2410 O   0  0  0  0  0  0  0  0  0  0  0  0
    0.6030    0.1111    0.5662 C   0  0  0  0  0  0  0  0  0  0  0  0
    1.8830    0.3407   -0.2091 C   0  0  0  0  0  0  0  0  0  0  0  0
    2.2703   -0.8298   -0.8568 O   0  0  0  0  0  0  0  0  0  0  0  0
   -0.5628   -2.2651   -0.7010 H   0  0  0  0  0  0  0  0  0  0  0  0
   -1.3823    1.9844   -0.8628 H   0  0  0  0  0  0  0  0  0  0  0  0
   -2.7137    0.7454   -0.5438 H   0  0  0  0  0  0  0  0  0  0  0  0
   -1.6981    0.1920    1.7410 H   0  0  0  0  0  0  0  0  0  0  0  0
    0.7619   -0.7308    1.2816 H   0  0  0  0  0  0  0  0  0  0  0  0
    1.7926    1.1823   -0.9256 H   0  0  0  0  0  0  0  0  0  0  0  0
    2.6737    0.5699    0.5403 H   0  0  0  0  0  0  0  0  0  0  0  0
    3.1827   -1.1369   -0.5689 H   0  0  0  0  0  0  0  0  0  0  0  0
  1  2  2  0
  2  3  1  0
  3  4  1  0
  4  5  1  0
  5  6  1  0
  6  7  1  0
  7  8  1  0
  8  9  1  0
  5  3  1  0
  7  3  1  0
  2 10  1  0
  4 11  1  0
  4 12  1  0
  5 13  1  0
  7 14  1  0
  8 15  1  0
  8 16  1  0
  9 17  1  0
M  END
