
     RDKit          3D

 19 20  0  0  0  0  0  0  0  0999 V2000
    2.2176    1.7557    0.3412 O   0  0  0  0  0  0  0  0  0  0  0  0
    1.8364    0.7590    0.9870 C   0  0  0  0  0  0  0  0  0  0  0  0
    1.7323   -0.5739    0.3447 C   0  0  0  0  0  0  0  0  0  0  0  0
    0.8701   -0.6017   -0.8728 C   0  0  0  0  0  0  0  0  0  0  0  0
   -0.5456   -0.2359   -0.6902 C   0  0  0  0  0  0  0  0  0  0  0  0
   -1.3241   -1.1022    0.2641 C   0  0  0  0  0  0  0  0  0  0  0  0
   -1.1822    0.3696    0.4535 C   0  0  0  0  0  0  0  0  0  0  0  0
   -1.9260    1.1940   -0.5669 C   0  0  0  0  0  0  0  0  0  0  0  0
   -1.2500    0.5283   -1.6041 O   0  0  0  0  0  0  0  0  0  0  0  0
    1.5857    0.8864    2.0198 H   0  0  0  0  0  0  0  0  0  0  0  0
    1.4242   -1.3173    1.1348 H   0  0  0  0  0  0  0  0  0  0  0  0
    2.7860   -0.8908    0.0766 H   0  0  0  0  0  0  0  0  0  0  0  0
    1.3861    0.0056   -1.6564 H   0  0  0  0  0  0  0  0  0  0  0  0
    0.9093   -1.6543   -1.2755 H   0  0  0  0  0  0  0  0  0  0  0  0
   -0.7625   -1.7402    0.9619 H   0  0  0  0  0  0  0  0  0  0  0  0
   -2.2887   -1.4566   -0.1688 H   0  0  0  0  0  0  0  0  0  0  0  0
   -0.7254    0.8269    1.3283 H   0  0  0  0  0  0  0  0  0  0  0  0
   -1.7285    2.2767   -0.5710 H   0  0  0  0  0  0  0  0  0  0  0  0
   -3.0146    0.9706   -0.5059 H   0  0  0  0  0  0  0  0  0  0  0  0
  1  2  2  0
  2  3  1  0
  3  4  1  0
  4  5  1  0
  5  6  1  0
  6  7  1  0
  7  8  1  0
  8  9  1  0
  7  5  1  0
  9  5  1  0
  2 10  1  0
  3 11  1  0
  3 12  1  0
  4 13  1  0
  4 14  1  0
  6 15  1  0
  6 16  1  0
  7 17  1  0
  8 18  1  0
  8 19  1  0
M  END
