
     RDKit          3D

 21 21  0  0  0  0  0  0  0  0999 V2000
    3.4527    1.0242   -1.3964 O   0  0  0  0  0  0  0  0  0  0  0  0
    2.6585    0.6639   -0.5571 C   0  0  0  0  0  0  0  0  0  0  0  0
    2.1411   -0.7230   -0.5292 C   0  0  0  0  0  0  0  0  0  0  0  0
    1.1728   -0.9264    0.6000 C   0  0  0  0  0  0  0  0  0  0  0  0
   -0.0282   -0.0261    0.5208 C   0  0  0  0  0  0  0  0  0  0  0  0
   -0.8197   -0.2395   -0.7532 C   0  0  0  0  0  0  0  0  0  0  0  0
   -1.9968    0.7410   -0.6825 C   0  0  0  0  0  0  0  0  0  0  0  0
   -2.9008    0.5673    0.4583 C   0  0  0  0  0  0  0  0  0  0  0  0
   -3.2646    0.2630   -0.9103 O   0  0  0  0  0  0  0  0  0  0  0  0
    2.3149    1.3564    0.1881 H   0  0  0  0  0  0  0  0  0  0  0  0
    1.7166   -0.9488   -1.5212 H   0  0  0  0  0  0  0  0  0  0  0  0
    2.9978   -1.4077   -0.3533 H   0  0  0  0  0  0  0  0  0  0  0  0
    1.6977   -0.7041    1.5446 H   0  0  0  0  0  0  0  0  0  0  0  0
    0.8026   -1.9726    0.5757 H   0  0  0  0  0  0  0  0  0  0  0  0
   -0.7080   -0.3278    1.3561 H   0  0  0  0  0  0  0  0  0  0  0  0
    0.2046    1.0393    0.6860 H   0  0  0  0  0  0  0  0  0  0  0  0
   -1.1677   -1.2855   -0.7849 H   0  0  0  0  0  0  0  0  0  0  0  0
   -0.2266    0.0434   -1.6518 H   0  0  0  0  0  0  0  0  0  0  0  0
   -1.7141    1.7683   -0.9491 H   0  0  0  0  0  0  0  0  0  0  0  0
   -2.9539   -0.3524    1.0639 H   0  0  0  0  0  0  0  0  0  0  0  0
   -3.3788    1.4473    0.8896 H   0  0  0  0  0  0  0  0  0  0  0  0
  1  2  2  0
  2  3  1  0
  3  4  1  0
  4  5  1  0
  5  6  1  0
  6  7  1  0
  7  8  1  0
  8  9  1  0
  9  7  1  0
  2 10  1  0
  3 11  1  0
  3 12  1  0
  4 13  1  0
  4 14  1  0
  5 15  1  0
  5 16  1  0
  6 17  1  0
  6 18  1  0
  7 19  1  0
  8 20  1  0
  8 21  1  0
M  END
