
     RDKit          3D

 17 16  0  0  0  0  0  0  0  0999 V2000
    3.5705    1.1386    1.7031 O   0  0  0  0  0  0  0  0  0  0  0  0
    2.4179    1.6430    1.7041 C   0  0  0  0  0  0  0  0  0  0  0  0
    1.3615    1.1133    0.8728 C   0  0  0  0  0  0  0  0  0  0  0  0
    0.4881    0.6559    0.1645 C   0  0  0  0  0  0  0  0  0  0  0  0
   -0.5801    0.0981   -0.6698 C   0  0  0  0  0  0  0  0  0  0  0  0
   -0.1621   -1.2559   -1.1607 C   0  0  0  0  0  0  0  0  0  0  0  0
    0.9881   -1.1207   -1.8967 O   0  0  0  0  0  0  0  0  0  0  0  0
   -1.8535    0.0584    0.1367 C   0  0  0  0  0  0  0  0  0  0  0  0
   -1.6888   -0.7399    1.2728 O   0  0  0  0  0  0  0  0  0  0  0  0
    2.2493    2.4871    2.3504 H   0  0  0  0  0  0  0  0  0  0  0  0
   -0.7595    0.7357   -1.5647 H   0  0  0  0  0  0  0  0  0  0  0  0
   -0.9789   -1.6504   -1.7993 H   0  0  0  0  0  0  0  0  0  0  0  0
   -0.0018   -1.9606   -0.3069 H   0  0  0  0  0  0  0  0  0  0  0  0
    0.8691   -1.5551   -2.7754 H   0  0  0  0  0  0  0  0  0  0  0  0
   -2.1247    1.0641    0.4613 H   0  0  0  0  0  0  0  0  0  0  0  0
   -2.6324   -0.4159   -0.4726 H   0  0  0  0  0  0  0  0  0  0  0  0
   -1.1626   -0.2956    1.9804 H   0  0  0  0  0  0  0  0  0  0  0  0
  1  2  2  0
  2  3  1  0
  3  4  3  0
  4  5  1  0
  5  6  1  0
  6  7  1  0
  5  8  1  0
  8  9  1  0
  2 10  1  0
  5 11  1  0
  6 12  1  0
  6 13  1  0
  7 14  1  0
  8 15  1  0
  8 16  1  0
  9 17  1  0
M  END
