
     RDKit          3D

 19 20  0  0  0  0  0  0  0  0999 V2000
   -1.6939   -0.1995    1.6906 O   0  0  0  0  0  0  0  0  0  0  0  0
   -2.0232    0.6790    0.9421 C   0  0  0  0  0  0  0  0  0  0  0  0
   -1.5043    0.6982   -0.4353 C   0  0  0  0  0  0  0  0  0  0  0  0
   -1.4307   -0.5662   -1.2106 C   0  0  0  0  0  0  0  0  0  0  0  0
   -0.1718    0.2323   -0.7999 C   0  0  0  0  0  0  0  0  0  0  0  0
    0.7563   -0.5429    0.0531 C   0  0  0  0  0  0  0  0  0  0  0  0
    1.2433    0.0180    1.3357 C   0  0  0  0  0  0  0  0  0  0  0  0
    2.5308   -0.4756    1.0053 O   0  0  0  0  0  0  0  0  0  0  0  0
    2.2087   -0.2667   -0.3133 C   0  0  0  0  0  0  0  0  0  0  0  0
   -2.7119    1.4369    1.3437 H   0  0  0  0  0  0  0  0  0  0  0  0
   -1.9093    1.5688   -1.0332 H   0  0  0  0  0  0  0  0  0  0  0  0
   -1.6368   -0.6322   -2.2767 H   0  0  0  0  0  0  0  0  0  0  0  0
   -1.6602   -1.4856   -0.6462 H   0  0  0  0  0  0  0  0  0  0  0  0
    0.3147    0.7699   -1.6735 H   0  0  0  0  0  0  0  0  0  0  0  0
    0.5961   -1.6410    0.0372 H   0  0  0  0  0  0  0  0  0  0  0  0
    0.9495   -0.5259    2.2611 H   0  0  0  0  0  0  0  0  0  0  0  0
    1.2217    1.1052    1.3770 H   0  0  0  0  0  0  0  0  0  0  0  0
    2.6127   -0.9792   -1.0510 H   0  0  0  0  0  0  0  0  0  0  0  0
    2.3082    0.8065   -0.6063 H   0  0  0  0  0  0  0  0  0  0  0  0
  1  2  2  0
  2  3  1  0
  3  4  1  0
  4  5  1  0
  5  6  1  0
  6  7  1  0
  7  8  1  0
  8  9  1  0
  5  3  1  0
  9  6  1  0
  2 10  1  0
  3 11  1  0
  4 12  1  0
  4 13  1  0
  5 14  1  0
  6 15  1  0
  7 16  1  0
  7 17  1  0
  9 18  1  0
  9 19  1  0
M  END
