
     RDKit          3D

 21 21  0  0  0  0  0  0  0  0999 V2000
    4.1495    0.3529   -0.1050 O   0  0  0  0  0  0  0  0  0  0  0  0
    3.3925   -0.5001   -0.5054 C   0  0  0  0  0  0  0  0  0  0  0  0
    1.9674   -0.1732   -0.7101 C   0  0  0  0  0  0  0  0  0  0  0  0
    1.2330   -0.2203    0.6072 C   0  0  0  0  0  0  0  0  0  0  0  0
   -0.2195    0.1079    0.4295 C   0  0  0  0  0  0  0  0  0  0  0  0
   -0.8985    1.1003    0.9790 C   0  0  0  0  0  0  0  0  0  0  0  0
   -2.3286    1.1172    0.5742 C   0  0  0  0  0  0  0  0  0  0  0  0
   -2.4978   -0.3187    0.0579 C   0  0  0  0  0  0  0  0  0  0  0  0
   -1.1375   -0.6683   -0.4346 C   0  0  0  0  0  0  0  0  0  0  0  0
    3.7547   -1.4878   -0.7103 H   0  0  0  0  0  0  0  0  0  0  0  0
    1.8567    0.8432   -1.1481 H   0  0  0  0  0  0  0  0  0  0  0  0
    1.5544   -0.8783   -1.4462 H   0  0  0  0  0  0  0  0  0  0  0  0
    1.3034   -1.2512    1.0091 H   0  0  0  0  0  0  0  0  0  0  0  0
    1.7403    0.4498    1.3120 H   0  0  0  0  0  0  0  0  0  0  0  0
   -0.4006    1.8177    1.6666 H   0  0  0  0  0  0  0  0  0  0  0  0
   -2.5474    1.8597   -0.1995 H   0  0  0  0  0  0  0  0  0  0  0  0
   -2.9345    1.2305    1.4958 H   0  0  0  0  0  0  0  0  0  0  0  0
   -2.7346   -0.9585    0.9273 H   0  0  0  0  0  0  0  0  0  0  0  0
   -3.3070   -0.4083   -0.6685 H   0  0  0  0  0  0  0  0  0  0  0  0
   -0.9162   -1.7563   -0.3961 H   0  0  0  0  0  0  0  0  0  0  0  0
   -1.0297   -0.2584   -1.4624 H   0  0  0  0  0  0  0  0  0  0  0  0
  1  2  2  0
  2  3  1  0
  3  4  1  0
  4  5  1  0
  5  6  2  0
  6  7  1  0
  7  8  1  0
  8  9  1  0
  9  5  1  0
  2 10  1  0
  3 11  1  0
  3 12  1  0
  4 13  1  0
  4 14  1  0
  6 15  1  0
  7 16  1  0
  7 17  1  0
  8 18  1  0
  8 19  1  0
  9 20  1  0
  9 21  1  0
M  END
