
     RDKit          3D

 17 18  0  0  0  0  0  0  0  0999 V2000
    3.4911    0.6462   -0.3222 O   0  0  0  0  0  0  0  0  0  0  0  0
    2.3250    0.7984   -0.0646 C   0  0  0  0  0  0  0  0  0  0  0  0
    1.3504   -0.3090   -0.3018 C   0  0  0  0  0  0  0  0  0  0  0  0
    0.0985    0.0473   -0.8346 C   0  0  0  0  0  0  0  0  0  0  0  0
   -1.0097    0.9504   -0.4110 C   0  0  0  0  0  0  0  0  0  0  0  0
   -1.8594   -0.0461    0.3027 C   0  0  0  0  0  0  0  0  0  0  0  0
   -3.0168    0.1083    0.5571 O   0  0  0  0  0  0  0  0  0  0  0  0
   -1.0065   -1.2256    0.6213 C   0  0  0  0  0  0  0  0  0  0  0  0
    0.3180   -0.5284    0.6258 C   0  0  0  0  0  0  0  0  0  0  0  0
    1.9789    1.7600    0.3476 H   0  0  0  0  0  0  0  0  0  0  0  0
    1.8720   -1.2140   -0.7237 H   0  0  0  0  0  0  0  0  0  0  0  0
   -0.3423   -0.6884   -1.5793 H   0  0  0  0  0  0  0  0  0  0  0  0
   -0.5945    1.7132    0.2771 H   0  0  0  0  0  0  0  0  0  0  0  0
   -1.5141    1.3873   -1.2880 H   0  0  0  0  0  0  0  0  0  0  0  0
   -1.0865   -1.9316   -0.2240 H   0  0  0  0  0  0  0  0  0  0  0  0
   -1.2655   -1.7122    1.5599 H   0  0  0  0  0  0  0  0  0  0  0  0
    0.2614    0.2443    1.4577 H   0  0  0  0  0  0  0  0  0  0  0  0
  1  2  2  0
  2  3  1  0
  3  4  1  0
  4  5  1  0
  5  6  1  0
  6  7  2  0
  6  8  1  0
  8  9  1  0
  9  3  1  0
  9  4  1  0
  2 10  1  0
  3 11  1  0
  4 12  1  0
  5 13  1  0
  5 14  1  0
  8 15  1  0
  8 16  1  0
  9 17  1  0
M  END
