
     RDKit          3D

 16 17  0  0  0  0  0  0  0  0999 V2000
    2.2098    0.9845   -1.6765 O   0  0  0  0  0  0  0  0  0  0  0  0
    2.0875   -0.0007   -1.0005 C   0  0  0  0  0  0  0  0  0  0  0  0
    1.1442   -0.0229    0.1295 C   0  0  0  0  0  0  0  0  0  0  0  0
    0.0191   -1.0527   -0.1182 C   0  0  0  0  0  0  0  0  0  0  0  0
   -1.0987   -0.1109   -0.3394 C   0  0  0  0  0  0  0  0  0  0  0  0
   -1.9926    0.5772    0.4896 C   0  0  0  0  0  0  0  0  0  0  0  0
   -0.6653    0.8028    0.8812 C   0  0  0  0  0  0  0  0  0  0  0  0
    0.4687    1.2227    0.2588 O   0  0  0  0  0  0  0  0  0  0  0  0
    2.6612   -0.8756   -1.2090 H   0  0  0  0  0  0  0  0  0  0  0  0
    1.6301   -0.2214    1.1009 H   0  0  0  0  0  0  0  0  0  0  0  0
    0.2424   -1.6702   -1.0067 H   0  0  0  0  0  0  0  0  0  0  0  0
   -0.1498   -1.6628    0.7987 H   0  0  0  0  0  0  0  0  0  0  0  0
   -0.9454    0.3608   -1.3640 H   0  0  0  0  0  0  0  0  0  0  0  0
   -2.5824    1.4510    0.0908 H   0  0  0  0  0  0  0  0  0  0  0  0
   -2.6820   -0.0232    1.1488 H   0  0  0  0  0  0  0  0  0  0  0  0
   -0.3468    0.2413    1.8161 H   0  0  0  0  0  0  0  0  0  0  0  0
  1  2  2  0
  2  3  1  0
  3  4  1  0
  4  5  1  0
  5  6  1  0
  6  7  1  0
  7  8  1  0
  8  3  1  0
  7  5  1  0
  2  9  1  0
  3 10  1  0
  4 11  1  0
  4 12  1  0
  5 13  1  0
  6 14  1  0
  6 15  1  0
  7 16  1  0
M  END
