
     RDKit          3D

 19 19  0  0  0  0  0  0  0  0999 V2000
    2.0352    0.2980    1.9112 O   0  0  0  0  0  0  0  0  0  0  0  0
    2.0817    0.4050    0.6930 C   0  0  0  0  0  0  0  0  0  0  0  0
    1.5677   -0.6451   -0.2222 C   0  0  0  0  0  0  0  0  0  0  0  0
    0.0694   -0.5853   -0.3747 C   0  0  0  0  0  0  0  0  0  0  0  0
   -0.3655   -1.5738   -1.2291 O   0  0  0  0  0  0  0  0  0  0  0  0
   -0.6686   -0.7077    0.8848 C   0  0  0  0  0  0  0  0  0  0  0  0
   -1.6634    0.1651    0.9496 C   0  0  0  0  0  0  0  0  0  0  0  0
   -1.6956    0.9923   -0.3054 C   0  0  0  0  0  0  0  0  0  0  0  0
   -0.3091    0.8071   -0.8653 C   0  0  0  0  0  0  0  0  0  0  0  0
    2.5200    1.3110    0.3008 H   0  0  0  0  0  0  0  0  0  0  0  0
    1.9998   -0.4404   -1.2226 H   0  0  0  0  0  0  0  0  0  0  0  0
    1.9282   -1.6510    0.0634 H   0  0  0  0  0  0  0  0  0  0  0  0
   -0.3881   -2.4134   -0.7331 H   0  0  0  0  0  0  0  0  0  0  0  0
   -0.4616   -1.4049    1.6830 H   0  0  0  0  0  0  0  0  0  0  0  0
   -2.3905    0.3304    1.7413 H   0  0  0  0  0  0  0  0  0  0  0  0
   -2.4894    0.6633   -0.9871 H   0  0  0  0  0  0  0  0  0  0  0  0
   -1.8741    2.0462   -0.0041 H   0  0  0  0  0  0  0  0  0  0  0  0
    0.3553    1.5280   -0.3317 H   0  0  0  0  0  0  0  0  0  0  0  0
   -0.2514    0.8753   -1.9517 H   0  0  0  0  0  0  0  0  0  0  0  0
  1  2  2  0
  2  3  1  0
  3  4  1  0
  4  5  1  0
  4  6  1  0
  6  7  2  0
  7  8  1  0
  8  9  1  0
  9  4  1  0
  2 10  1  0
  3 11  1  0
  3 12  1  0
  5 13  1  0
  6 14  1  0
  7 15  1  0
  8 16  1  0
  8 17  1  0
  9 18  1  0
  9 19  1  0
M  END
