
     RDKit          3D

 19 21  0  0  0  0  0  0  0  0999 V2000
    3.1304    0.8422    0.0785 O   0  0  0  0  0  0  0  0  0  0  0  0
    2.3007    0.3285   -0.6569 C   0  0  0  0  0  0  0  0  0  0  0  0
    0.9188    0.1698   -0.2031 C   0  0  0  0  0  0  0  0  0  0  0  0
    0.3108    1.3406    0.5069 C   0  0  0  0  0  0  0  0  0  0  0  0
   -1.1174    0.9231    0.7894 C   0  0  0  0  0  0  0  0  0  0  0  0
   -1.3905   -0.1818   -0.2050 C   0  0  0  0  0  0  0  0  0  0  0  0
   -0.9722   -1.5045    0.4505 C   0  0  0  0  0  0  0  0  0  0  0  0
    0.4221   -1.2092   -0.0312 C   0  0  0  0  0  0  0  0  0  0  0  0
   -0.1571   -0.3191   -1.0450 C   0  0  0  0  0  0  0  0  0  0  0  0
    2.5759   -0.0140   -1.6480 H   0  0  0  0  0  0  0  0  0  0  0  0
    0.2247    2.1825   -0.2430 H   0  0  0  0  0  0  0  0  0  0  0  0
    0.8535    1.6555    1.4028 H   0  0  0  0  0  0  0  0  0  0  0  0
   -1.2262    0.5616    1.8344 H   0  0  0  0  0  0  0  0  0  0  0  0
   -1.8194    1.7739    0.6723 H   0  0  0  0  0  0  0  0  0  0  0  0
   -2.3520   -0.1849   -0.6948 H   0  0  0  0  0  0  0  0  0  0  0  0
   -1.1268   -1.5406    1.5325 H   0  0  0  0  0  0  0  0  0  0  0  0
   -1.4928   -2.3252   -0.1207 H   0  0  0  0  0  0  0  0  0  0  0  0
    1.0817   -2.0278   -0.3178 H   0  0  0  0  0  0  0  0  0  0  0  0
   -0.1643   -0.4707   -2.1019 H   0  0  0  0  0  0  0  0  0  0  0  0
  1  2  2  0
  2  3  1  0
  3  4  1  0
  4  5  1  0
  5  6  1  0
  6  7  1  0
  7  8  1  0
  8  9  1  0
  8  3  1  0
  9  3  1  0
  9  6  1  0
  2 10  1  0
  4 11  1  0
  4 12  1  0
  5 13  1  0
  5 14  1  0
  6 15  1  0
  7 16  1  0
  7 17  1  0
  8 18  1  0
  9 19  1  0
M  END
