
     RDKit          3D

 17 17  0  0  0  0  0  0  0  0999 V2000
   -1.5019    0.0901   -1.9143 O   0  0  0  0  0  0  0  0  0  0  0  0
   -1.9409    0.3824   -0.8333 C   0  0  0  0  0  0  0  0  0  0  0  0
   -1.3169    0.2851    0.4670 C   0  0  0  0  0  0  0  0  0  0  0  0
    0.0397   -0.2286    0.5668 C   0  0  0  0  0  0  0  0  0  0  0  0
    0.3488   -1.6115    0.0887 C   0  0  0  0  0  0  0  0  0  0  0  0
    1.6733   -1.1490   -0.1154 O   0  0  0  0  0  0  0  0  0  0  0  0
    1.0730    0.0846   -0.4455 C   0  0  0  0  0  0  0  0  0  0  0  0
    1.9482    1.2507   -0.1744 C   0  0  0  0  0  0  0  0  0  0  0  0
    1.6146    2.3826   -0.3894 O   0  0  0  0  0  0  0  0  0  0  0  0
   -2.9733    0.7818   -0.8596 H   0  0  0  0  0  0  0  0  0  0  0  0
   -1.9893   -0.3228    1.1323 H   0  0  0  0  0  0  0  0  0  0  0  0
   -1.3394    1.3112    0.9405 H   0  0  0  0  0  0  0  0  0  0  0  0
    0.4377   -0.1073    1.6056 H   0  0  0  0  0  0  0  0  0  0  0  0
    0.2982   -2.3573    0.9001 H   0  0  0  0  0  0  0  0  0  0  0  0
   -0.0872   -1.9071   -0.8812 H   0  0  0  0  0  0  0  0  0  0  0  0
    0.7886    0.0505   -1.4967 H   0  0  0  0  0  0  0  0  0  0  0  0
    2.9266    1.0646    0.2343 H   0  0  0  0  0  0  0  0  0  0  0  0
  1  2  2  0
  2  3  1  0
  3  4  1  0
  4  5  1  0
  5  6  1  0
  6  7  1  0
  7  8  1  0
  8  9  2  0
  7  4  1  0
  2 10  1  0
  3 11  1  0
  3 12  1  0
  4 13  1  0
  5 14  1  0
  5 15  1  0
  7 16  1  0
  8 17  1  0
M  END
