
     RDKit          3D

 17 17  0  0  0  0  0  0  0  0999 V2000
   -3.5256    0.2203   -0.1922 O   0  0  0  0  0  0  0  0  0  0  0  0
   -2.4825   -0.0880   -0.7335 C   0  0  0  0  0  0  0  0  0  0  0  0
   -1.2549    0.7098   -0.4535 C   0  0  0  0  0  0  0  0  0  0  0  0
   -0.6640    0.2194    0.8160 C   0  0  0  0  0  0  0  0  0  0  0  0
    0.5561    0.8895    1.2558 O   0  0  0  0  0  0  0  0  0  0  0  0
    0.5139   -0.5725    0.9768 C   0  0  0  0  0  0  0  0  0  0  0  0
    1.5400   -0.9020   -0.0369 C   0  0  0  0  0  0  0  0  0  0  0  0
    2.2074    0.3119   -0.5588 C   0  0  0  0  0  0  0  0  0  0  0  0
    3.4146    0.5437   -0.3713 O   0  0  0  0  0  0  0  0  0  0  0  0
   -2.5125   -0.9355   -1.3952 H   0  0  0  0  0  0  0  0  0  0  0  0
   -1.5544    1.7593   -0.2802 H   0  0  0  0  0  0  0  0  0  0  0  0
   -0.6213    0.6500   -1.3383 H   0  0  0  0  0  0  0  0  0  0  0  0
   -1.3810    0.2729    1.6763 H   0  0  0  0  0  0  0  0  0  0  0  0
    0.5766   -1.1868    1.9180 H   0  0  0  0  0  0  0  0  0  0  0  0
    2.3576   -1.4967    0.4582 H   0  0  0  0  0  0  0  0  0  0  0  0
    1.1372   -1.4914   -0.8978 H   0  0  0  0  0  0  0  0  0  0  0  0
    1.6926    1.0958   -1.1429 H   0  0  0  0  0  0  0  0  0  0  0  0
  1  2  2  0
  2  3  1  0
  3  4  1  0
  4  5  1  0
  5  6  1  0
  6  7  1  0
  7  8  1  0
  8  9  2  0
  6  4  1  0
  2 10  1  0
  3 11  1  0
  3 12  1  0
  4 13  1  0
  6 14  1  0
  7 15  1  0
  7 16  1  0
  8 17  1  0
M  END
