
     RDKit          3D

 19 20  0  0  0  0  0  0  0  0999 V2000
    3.4911   -0.3057   -0.4032 O   0  0  0  0  0  0  0  0  0  0  0  0
    2.6539    0.1739    0.3594 C   0  0  0  0  0  0  0  0  0  0  0  0
    1.6584   -0.6898    1.0119 C   0  0  0  0  0  0  0  0  0  0  0  0
    0.3004   -0.4908    0.4525 C   0  0  0  0  0  0  0  0  0  0  0  0
   -0.5619   -1.2923   -0.1578 C   0  0  0  0  0  0  0  0  0  0  0  0
   -1.6899   -0.3703   -0.4796 C   0  0  0  0  0  0  0  0  0  0  0  0
   -0.9066    0.8634   -0.9548 C   0  0  0  0  0  0  0  0  0  0  0  0
   -0.4076    0.8133    0.4937 C   0  0  0  0  0  0  0  0  0  0  0  0
   -1.8048    0.3880    0.8406 C   0  0  0  0  0  0  0  0  0  0  0  0
    2.7200    1.2694    0.5000 H   0  0  0  0  0  0  0  0  0  0  0  0
    2.0160   -1.7471    0.8744 H   0  0  0  0  0  0  0  0  0  0  0  0
    1.6533   -0.5412    2.1341 H   0  0  0  0  0  0  0  0  0  0  0  0
   -0.5104   -2.3429   -0.3854 H   0  0  0  0  0  0  0  0  0  0  0  0
   -2.5349   -0.6792   -1.0064 H   0  0  0  0  0  0  0  0  0  0  0  0
   -0.0793    0.5802   -1.6044 H   0  0  0  0  0  0  0  0  0  0  0  0
   -1.5243    1.7296   -1.2157 H   0  0  0  0  0  0  0  0  0  0  0  0
    0.0188    1.6765    0.9059 H   0  0  0  0  0  0  0  0  0  0  0  0
   -2.5572    1.1980    0.7046 H   0  0  0  0  0  0  0  0  0  0  0  0
   -1.9350   -0.2329    1.7329 H   0  0  0  0  0  0  0  0  0  0  0  0
  1  2  2  0
  2  3  1  0
  3  4  1  0
  4  5  2  0
  5  6  1  0
  6  7  1  0
  7  8  1  0
  8  9  1  0
  8  4  1  0
  9  6  1  0
  2 10  1  0
  3 11  1  0
  3 12  1  0
  5 13  1  0
  6 14  1  0
  7 15  1  0
  7 16  1  0
  8 17  1  0
  9 18  1  0
  9 19  1  0
M  END
