
     RDKit          3D

 17 17  0  0  0  0  0  0  0  0999 V2000
    1.8132    1.4136    0.0673 O   0  0  0  0  0  0  0  0  0  0  0  0
    2.3832    0.4008    0.3601 C   0  0  0  0  0  0  0  0  0  0  0  0
    1.9076   -0.9679   -0.0462 C   0  0  0  0  0  0  0  0  0  0  0  0
    0.7651   -0.8202   -0.7709 O   0  0  0  0  0  0  0  0  0  0  0  0
   -0.2809   -0.2116   -0.1350 C   0  0  0  0  0  0  0  0  0  0  0  0
   -1.6724   -0.5357   -0.5700 C   0  0  0  0  0  0  0  0  0  0  0  0
   -2.7399   -0.4560    0.2866 O   0  0  0  0  0  0  0  0  0  0  0  0
   -1.0807    0.7425   -1.0137 C   0  0  0  0  0  0  0  0  0  0  0  0
   -1.4517    1.9429   -0.3978 O   0  0  0  0  0  0  0  0  0  0  0  0
    3.2955    0.4522    0.9512 H   0  0  0  0  0  0  0  0  0  0  0  0
    2.6959   -1.3750   -0.7131 H   0  0  0  0  0  0  0  0  0  0  0  0
    1.8298   -1.6442    0.8200 H   0  0  0  0  0  0  0  0  0  0  0  0
   -0.0803    0.0982    0.9144 H   0  0  0  0  0  0  0  0  0  0  0  0
   -1.7586   -1.3628   -1.3253 H   0  0  0  0  0  0  0  0  0  0  0  0
   -2.5099   -0.3667    1.2389 H   0  0  0  0  0  0  0  0  0  0  0  0
   -0.8101    0.8144   -2.0941 H   0  0  0  0  0  0  0  0  0  0  0  0
   -2.3059    1.8755    0.0788 H   0  0  0  0  0  0  0  0  0  0  0  0
  1  2  2  0
  2  3  1  0
  3  4  1  0
  4  5  1  0
  5  6  1  0
  6  7  1  0
  6  8  1  0
  8  9  1  0
  8  5  1  0
  2 10  1  0
  3 11  1  0
  3 12  1  0
  5 13  1  0
  6 14  1  0
  7 15  1  0
  8 16  1  0
  9 17  1  0
M  END
