
     RDKit          3D

 14 13  0  0  0  0  0  0  0  0999 V2000
    2.2991   -1.3981    1.0756 O   0  0  0  0  0  0  0  0  0  0  0  0
    1.8357   -0.8882    0.0719 C   0  0  0  0  0  0  0  0  0  0  0  0
    0.9212    0.2675    0.0957 C   0  0  0  0  0  0  0  0  0  0  0  0
    0.5647    0.6201   -1.2073 O   0  0  0  0  0  0  0  0  0  0  0  0
   -0.3181    0.0047    0.8616 C   0  0  0  0  0  0  0  0  0  0  0  0
   -0.2281   -0.3197    2.0278 O   0  0  0  0  0  0  0  0  0  0  0  0
   -1.6743    0.1198    0.2671 C   0  0  0  0  0  0  0  0  0  0  0  0
   -1.6383    0.4953   -1.0639 O   0  0  0  0  0  0  0  0  0  0  0  0
    2.1239   -1.3228   -0.8763 H   0  0  0  0  0  0  0  0  0  0  0  0
    1.4823    1.1341    0.5010 H   0  0  0  0  0  0  0  0  0  0  0  0
    0.6264    1.5863   -1.3774 H   0  0  0  0  0  0  0  0  0  0  0  0
   -2.2296    0.8659    0.8732 H   0  0  0  0  0  0  0  0  0  0  0  0
   -2.2174   -0.8369    0.3769 H   0  0  0  0  0  0  0  0  0  0  0  0
   -1.5476   -0.3280   -1.6258 H   0  0  0  0  0  0  0  0  0  0  0  0
  1  2  2  0
  2  3  1  0
  3  4  1  0
  3  5  1  0
  5  6  2  0
  5  7  1  0
  7  8  1  0
  2  9  1  0
  3 10  1  0
  4 11  1  0
  7 12  1  0
  7 13  1  0
  8 14  1  0
M  END
