
     RDKit          3D

 11 11  0  0  0  0  0  0  0  0999 V2000
    2.4961    0.4404   -0.1422 O   0  0  0  0  0  0  0  0  0  0  0  0
    1.7757   -0.4458    0.3775 C   0  0  0  0  0  0  0  0  0  0  0  0
    0.3389   -0.3993    0.2028 C   0  0  0  0  0  0  0  0  0  0  0  0
   -0.5892   -1.2185    0.6570 O   0  0  0  0  0  0  0  0  0  0  0  0
   -1.7858   -0.8338    0.2805 C   0  0  0  0  0  0  0  0  0  0  0  0
   -2.9021   -1.3736    0.5293 O   0  0  0  0  0  0  0  0  0  0  0  0
   -1.6007    0.2575   -0.4296 O   0  0  0  0  0  0  0  0  0  0  0  0
   -0.3463    0.5599   -0.5061 C   0  0  0  0  0  0  0  0  0  0  0  0
    0.1875    1.6634   -1.1896 O   0  0  0  0  0  0  0  0  0  0  0  0
    2.2835   -1.2154    0.9421 H   0  0  0  0  0  0  0  0  0  0  0  0
    0.1424    2.5652   -0.7217 H   0  0  0  0  0  0  0  0  0  0  0  0
  1  2  2  0
  2  3  1  0
  3  4  1  0
  4  5  1  0
  5  6  2  0
  5  7  1  0
  7  8  1  0
  8  9  1  0
  8  3  2  0
  2 10  1  0
  9 11  1  0
M  END
