
     RDKit          3D

 15 15  0  0  0  0  0  0  0  0999 V2000
    2.6984    0.9616    0.3224 O   0  0  0  0  0  0  0  0  0  0  0  0
    1.9928   -0.0154    0.4803 C   0  0  0  0  0  0  0  0  0  0  0  0
    0.7714   -0.1397   -0.3319 C   0  0  0  0  0  0  0  0  0  0  0  0
    0.0851    1.1813   -0.4857 C   0  0  0  0  0  0  0  0  0  0  0  0
   -1.2176    1.0219   -0.3430 C   0  0  0  0  0  0  0  0  0  0  0  0
   -1.5478   -0.3897   -0.0834 C   0  0  0  0  0  0  0  0  0  0  0  0
   -0.2603   -0.9674    0.4185 C   0  0  0  0  0  0  0  0  0  0  0  0
    2.3005   -0.7460    1.2130 H   0  0  0  0  0  0  0  0  0  0  0  0
    0.9159   -0.6069   -1.3084 H   0  0  0  0  0  0  0  0  0  0  0  0
    0.5874    2.1185   -0.6833 H   0  0  0  0  0  0  0  0  0  0  0  0
   -1.9361    1.8229   -0.4092 H   0  0  0  0  0  0  0  0  0  0  0  0
   -1.7631   -0.8782   -1.0670 H   0  0  0  0  0  0  0  0  0  0  0  0
   -2.3937   -0.5352    0.6106 H   0  0  0  0  0  0  0  0  0  0  0  0
   -0.1426   -2.0547    0.1667 H   0  0  0  0  0  0  0  0  0  0  0  0
   -0.0901   -0.7731    1.5004 H   0  0  0  0  0  0  0  0  0  0  0  0
  1  2  2  0
  2  3  1  0
  3  4  1  0
  4  5  2  0
  5  6  1  0
  6  7  1  0
  7  3  1  0
  2  8  1  0
  3  9  1  0
  4 10  1  0
  5 11  1  0
  6 12  1  0
  6 13  1  0
  7 14  1  0
  7 15  1  0
M  END
