
     RDKit          3D

 15 14  0  0  0  0  0  0  0  0999 V2000
    2.4707    0.7116   -1.7146 O   0  0  0  0  0  0  0  0  0  0  0  0
    2.5907    0.1096   -0.6691 C   0  0  0  0  0  0  0  0  0  0  0  0
    1.3676   -0.2144    0.1058 C   0  0  0  0  0  0  0  0  0  0  0  0
    0.2166    0.2422   -0.5119 O   0  0  0  0  0  0  0  0  0  0  0  0
   -0.9032   -0.0713    0.2273 C   0  0  0  0  0  0  0  0  0  0  0  0
   -1.8114   -0.9670   -0.5227 C   0  0  0  0  0  0  0  0  0  0  0  0
   -2.8544   -1.3446   -0.0144 O   0  0  0  0  0  0  0  0  0  0  0  0
   -1.5587    1.1786    0.6783 C   0  0  0  0  0  0  0  0  0  0  0  0
   -1.1474    2.2970    0.4199 O   0  0  0  0  0  0  0  0  0  0  0  0
    3.5773   -0.1691   -0.3386 H   0  0  0  0  0  0  0  0  0  0  0  0
    1.4321    0.3188    1.0880 H   0  0  0  0  0  0  0  0  0  0  0  0
    1.2908   -1.2914    0.3375 H   0  0  0  0  0  0  0  0  0  0  0  0
   -0.5854   -0.6225    1.1497 H   0  0  0  0  0  0  0  0  0  0  0  0
   -1.6084   -1.3216   -1.5223 H   0  0  0  0  0  0  0  0  0  0  0  0
   -2.4768    1.1441    1.2871 H   0  0  0  0  0  0  0  0  0  0  0  0
  1  2  2  0
  2  3  1  0
  3  4  1  0
  4  5  1  0
  5  6  1  0
  6  7  2  0
  5  8  1  0
  8  9  2  0
  2 10  1  0
  3 11  1  0
  3 12  1  0
  5 13  1  0
  6 14  1  0
  8 15  1  0
M  END
