
     RDKit          3D

 17 19  0  0  0  0  0  0  0  0999 V2000
    2.5942    0.8395    1.1050 O   0  0  0  0  0  0  0  0  0  0  0  0
    2.3746    0.4167   -0.0033 C   0  0  0  0  0  0  0  0  0  0  0  0
    1.0693    0.5125   -0.6675 C   0  0  0  0  0  0  0  0  0  0  0  0
    0.5593   -0.8536   -1.0853 C   0  0  0  0  0  0  0  0  0  0  0  0
   -0.6319   -1.0416   -0.5879 C   0  0  0  0  0  0  0  0  0  0  0  0
   -1.9212   -0.9555    0.0862 C   0  0  0  0  0  0  0  0  0  0  0  0
   -1.1062    0.1316    0.9260 C   0  0  0  0  0  0  0  0  0  0  0  0
   -1.0830    0.5043   -0.4706 C   0  0  0  0  0  0  0  0  0  0  0  0
   -0.0347    0.9869    0.2465 C   0  0  0  0  0  0  0  0  0  0  0  0
    3.1733   -0.0649   -0.5572 H   0  0  0  0  0  0  0  0  0  0  0  0
    1.1262    1.1218   -1.5891 H   0  0  0  0  0  0  0  0  0  0  0  0
    1.1457   -1.5128   -1.6978 H   0  0  0  0  0  0  0  0  0  0  0  0
   -2.7170   -0.4870   -0.4963 H   0  0  0  0  0  0  0  0  0  0  0  0
   -2.2345   -1.7981    0.7098 H   0  0  0  0  0  0  0  0  0  0  0  0
   -0.4899   -0.4831    1.5597 H   0  0  0  0  0  0  0  0  0  0  0  0
   -1.9513    0.7725   -0.9947 H   0  0  0  0  0  0  0  0  0  0  0  0
    0.1269    1.9107    0.8290 H   0  0  0  0  0  0  0  0  0  0  0  0
  1  2  2  0
  2  3  1  0
  3  4  1  0
  4  5  2  0
  5  6  1  0
  6  7  1  0
  7  8  1  0
  8  9  1  0
  9  3  1  0
  8  5  1  0
  9  7  1  0
  2 10  1  0
  3 11  1  0
  4 12  1  0
  6 13  1  0
  6 14  1  0
  7 15  1  0
  8 16  1  0
  9 17  1  0
M  END
