
     RDKit          3D

 17 18  0  0  0  0  0  0  0  0999 V2000
    3.0471    0.5936    0.1281 O   0  0  0  0  0  0  0  0  0  0  0  0
    2.0500    0.1414    0.6483 C   0  0  0  0  0  0  0  0  0  0  0  0
    0.8115    0.0704   -0.1382 C   0  0  0  0  0  0  0  0  0  0  0  0
    0.0905    1.3253   -0.5355 C   0  0  0  0  0  0  0  0  0  0  0  0
   -1.2397    0.6769   -0.1728 C   0  0  0  0  0  0  0  0  0  0  0  0
   -1.9181    0.2362   -1.3132 O   0  0  0  0  0  0  0  0  0  0  0  0
   -0.4537   -0.4668    0.4166 C   0  0  0  0  0  0  0  0  0  0  0  0
   -0.5345   -0.7678    1.7504 O   0  0  0  0  0  0  0  0  0  0  0  0
    0.3335   -1.2659   -0.5468 C   0  0  0  0  0  0  0  0  0  0  0  0
    2.0971   -0.1990    1.6796 H   0  0  0  0  0  0  0  0  0  0  0  0
    0.1959    1.5788   -1.5874 H   0  0  0  0  0  0  0  0  0  0  0  0
    0.2534    2.1918    0.1177 H   0  0  0  0  0  0  0  0  0  0  0  0
   -1.8775    1.2430    0.5030 H   0  0  0  0  0  0  0  0  0  0  0  0
   -2.3407   -0.6447   -1.1710 H   0  0  0  0  0  0  0  0  0  0  0  0
   -1.3779   -1.2379    1.9728 H   0  0  0  0  0  0  0  0  0  0  0  0
    0.8707   -2.1240   -0.1470 H   0  0  0  0  0  0  0  0  0  0  0  0
   -0.0075   -1.3513   -1.6045 H   0  0  0  0  0  0  0  0  0  0  0  0
  1  2  2  0
  2  3  1  0
  3  4  1  0
  4  5  1  0
  5  6  1  0
  5  7  1  0
  7  8  1  0
  7  9  1  0
  7  3  1  0
  9  3  1  0
  2 10  1  0
  4 11  1  0
  4 12  1  0
  5 13  1  0
  6 14  1  0
  8 15  1  0
  9 16  1  0
  9 17  1  0
M  END
