
     RDKit          3D

 15 14  0  0  0  0  0  0  0  0999 V2000
   -1.0156   -1.8911   -0.8857 O   0  0  0  0  0  0  0  0  0  0  0  0
   -1.5791   -0.9742   -0.3062 C   0  0  0  0  0  0  0  0  0  0  0  0
   -0.9382   -0.1948    0.7866 C   0  0  0  0  0  0  0  0  0  0  0  0
    0.0242    0.8274    0.2204 C   0  0  0  0  0  0  0  0  0  0  0  0
   -0.7554    1.6710   -0.6063 O   0  0  0  0  0  0  0  0  0  0  0  0
    1.0707    0.2090   -0.6168 C   0  0  0  0  0  0  0  0  0  0  0  0
    1.1660    0.4531   -1.8438 O   0  0  0  0  0  0  0  0  0  0  0  0
    2.0232   -0.7067   -0.0265 C   0  0  0  0  0  0  0  0  0  0  0  0
    1.9489   -0.9653    1.1937 O   0  0  0  0  0  0  0  0  0  0  0  0
   -2.6047   -0.7583   -0.6482 H   0  0  0  0  0  0  0  0  0  0  0  0
   -0.4656   -0.8682    1.5153 H   0  0  0  0  0  0  0  0  0  0  0  0
   -1.7576    0.3983    1.2791 H   0  0  0  0  0  0  0  0  0  0  0  0
    0.4695    1.3916    1.0663 H   0  0  0  0  0  0  0  0  0  0  0  0
   -0.3875    2.5874   -0.5245 H   0  0  0  0  0  0  0  0  0  0  0  0
    2.8014   -1.1791   -0.6035 H   0  0  0  0  0  0  0  0  0  0  0  0
  1  2  2  0
  2  3  1  0
  3  4  1  0
  4  5  1  0
  4  6  1  0
  6  7  2  0
  6  8  1  0
  8  9  2  0
  2 10  1  0
  3 11  1  0
  3 12  1  0
  4 13  1  0
  5 14  1  0
  8 15  1  0
M  END
