
     RDKit          3D

 17 16  0  0  0  0  0  0  0  0999 V2000
   -1.9454   -1.6384    2.6052 O   0  0  0  0  0  0  0  0  0  0  0  0
   -2.1901   -2.3398    1.6278 C   0  0  0  0  0  0  0  0  0  0  0  0
   -1.6227   -2.0391    0.2703 C   0  0  0  0  0  0  0  0  0  0  0  0
   -0.8498   -0.9074    0.3937 O   0  0  0  0  0  0  0  0  0  0  0  0
   -0.2538   -0.4956   -0.7711 C   0  0  0  0  0  0  0  0  0  0  0  0
    0.5334    0.7005   -0.5303 C   0  0  0  0  0  0  0  0  0  0  0  0
    1.1724    1.7096   -0.3287 C   0  0  0  0  0  0  0  0  0  0  0  0
    1.9481    2.9416   -0.0570 C   0  0  0  0  0  0  0  0  0  0  0  0
    3.1728    2.8975   -0.7463 O   0  0  0  0  0  0  0  0  0  0  0  0
   -2.8295   -3.1803    1.7857 H   0  0  0  0  0  0  0  0  0  0  0  0
   -2.4278   -1.9063   -0.4845 H   0  0  0  0  0  0  0  0  0  0  0  0
   -1.0345   -2.9218   -0.0787 H   0  0  0  0  0  0  0  0  0  0  0  0
    0.4273   -1.2959   -1.1768 H   0  0  0  0  0  0  0  0  0  0  0  0
   -1.0306   -0.2698   -1.5174 H   0  0  0  0  0  0  0  0  0  0  0  0
    1.3915    3.8335   -0.3534 H   0  0  0  0  0  0  0  0  0  0  0  0
    2.1123    2.9774    1.0349 H   0  0  0  0  0  0  0  0  0  0  0  0
    3.4264    1.9344   -0.7587 H   0  0  0  0  0  0  0  0  0  0  0  0
  1  2  2  0
  2  3  1  0
  3  4  1  0
  4  5  1  0
  5  6  1  0
  6  7  3  0
  7  8  1  0
  8  9  1  0
  2 10  1  0
  3 11  1  0
  3 12  1  0
  5 13  1  0
  5 14  1  0
  8 15  1  0
  8 16  1  0
  9 17  1  0
M  END
