
     RDKit          3D

 17 18  0  0  0  0  0  0  0  0999 V2000
   -2.2360    1.7131    0.3867 O   0  0  0  0  0  0  0  0  0  0  0  0
   -2.4199    0.6178   -0.1092 C   0  0  0  0  0  0  0  0  0  0  0  0
   -1.2745   -0.2350   -0.4121 C   0  0  0  0  0  0  0  0  0  0  0  0
   -0.7439   -0.9517    0.8632 C   0  0  0  0  0  0  0  0  0  0  0  0
    0.5505   -0.9276    0.1032 C   0  0  0  0  0  0  0  0  0  0  0  0
    1.7200   -0.6460    0.7747 O   0  0  0  0  0  0  0  0  0  0  0  0
    2.3484    0.3571    0.0149 C   0  0  0  0  0  0  0  0  0  0  0  0
    1.1509    1.1300   -0.4976 C   0  0  0  0  0  0  0  0  0  0  0  0
    0.0591    0.4052   -0.4172 C   0  0  0  0  0  0  0  0  0  0  0  0
   -3.4169    0.2838   -0.3211 H   0  0  0  0  0  0  0  0  0  0  0  0
   -1.3883   -0.9359   -1.2566 H   0  0  0  0  0  0  0  0  0  0  0  0
   -0.8300   -0.2589    1.6978 H   0  0  0  0  0  0  0  0  0  0  0  0
   -1.2626   -1.9187    0.9318 H   0  0  0  0  0  0  0  0  0  0  0  0
    0.6303   -1.7118   -0.6448 H   0  0  0  0  0  0  0  0  0  0  0  0
    3.0042    0.9938    0.6371 H   0  0  0  0  0  0  0  0  0  0  0  0
    2.8417   -0.0532   -0.8878 H   0  0  0  0  0  0  0  0  0  0  0  0
    1.2671    2.1382   -0.8630 H   0  0  0  0  0  0  0  0  0  0  0  0
  1  2  2  0
  2  3  1  0
  3  4  1  0
  4  5  1  0
  5  6  1  0
  6  7  1  0
  7  8  1  0
  8  9  2  0
  9  3  1  0
  9  5  1  0
  2 10  1  0
  3 11  1  0
  4 12  1  0
  4 13  1  0
  5 14  1  0
  7 15  1  0
  7 16  1  0
  8 17  1  0
M  END
