
     RDKit          3D

 15 16  0  0  0  0  0  0  0  0999 V2000
   -2.3590    1.4262    1.1474 O   0  0  0  0  0  0  0  0  0  0  0  0
   -1.2148    1.1477    0.7545 C   0  0  0  0  0  0  0  0  0  0  0  0
   -0.8546   -0.1698    0.2431 C   0  0  0  0  0  0  0  0  0  0  0  0
   -1.9268   -1.0890    0.2298 O   0  0  0  0  0  0  0  0  0  0  0  0
   -0.0111   -0.1693   -0.9628 C   0  0  0  0  0  0  0  0  0  0  0  0
    0.3192   -1.4865   -0.6162 O   0  0  0  0  0  0  0  0  0  0  0  0
    0.4286   -0.7944    0.6161 C   0  0  0  0  0  0  0  0  0  0  0  0
    1.1556    0.2254   -0.1434 C   0  0  0  0  0  0  0  0  0  0  0  0
    2.3970   -0.2291   -0.6478 O   0  0  0  0  0  0  0  0  0  0  0  0
   -0.5120    1.9497    0.8197 H   0  0  0  0  0  0  0  0  0  0  0  0
   -2.1206   -1.4121   -0.6790 H   0  0  0  0  0  0  0  0  0  0  0  0
   -0.2443    0.1313   -1.9004 H   0  0  0  0  0  0  0  0  0  0  0  0
    0.6756   -1.2586    1.4798 H   0  0  0  0  0  0  0  0  0  0  0  0
    1.2037    1.2420    0.2622 H   0  0  0  0  0  0  0  0  0  0  0  0
    3.0632    0.4866   -0.6031 H   0  0  0  0  0  0  0  0  0  0  0  0
  1  2  2  0
  2  3  1  0
  3  4  1  0
  3  5  1  0
  5  6  1  0
  6  7  1  0
  7  8  1  0
  8  9  1  0
  7  3  1  0
  8  5  1  0
  2 10  1  0
  4 11  1  0
  5 12  1  0
  7 13  1  0
  8 14  1  0
  9 15  1  0
M  END
