
     RDKit          3D

 15 15  0  0  0  0  0  0  0  0999 V2000
    3.6510   -1.7740    0.9267 O   0  0  0  0  0  0  0  0  0  0  0  0
    3.0925   -0.6476    1.0325 C   0  0  0  0  0  0  0  0  0  0  0  0
    1.8903   -0.3157    0.2943 C   0  0  0  0  0  0  0  0  0  0  0  0
    0.8959   -0.0271   -0.3298 C   0  0  0  0  0  0  0  0  0  0  0  0
   -0.3234    0.3050   -1.0741 C   0  0  0  0  0  0  0  0  0  0  0  0
   -1.4973   -0.5639   -0.8769 C   0  0  0  0  0  0  0  0  0  0  0  0
   -1.4615   -1.6391    0.0184 O   0  0  0  0  0  0  0  0  0  0  0  0
   -1.4906    0.7765   -0.2361 C   0  0  0  0  0  0  0  0  0  0  0  0
   -2.2344    1.8208   -0.8242 O   0  0  0  0  0  0  0  0  0  0  0  0
    3.5585    0.0676    1.7081 H   0  0  0  0  0  0  0  0  0  0  0  0
   -0.1625    0.7647   -2.0764 H   0  0  0  0  0  0  0  0  0  0  0  0
   -2.1108   -0.7726   -1.7756 H   0  0  0  0  0  0  0  0  0  0  0  0
   -0.8529   -1.3898    0.7564 H   0  0  0  0  0  0  0  0  0  0  0  0
   -1.3886    0.8759    0.8535 H   0  0  0  0  0  0  0  0  0  0  0  0
   -1.5662    2.5192   -1.0754 H   0  0  0  0  0  0  0  0  0  0  0  0
  1  2  2  0
  2  3  1  0
  3  4  3  0
  4  5  1  0
  5  6  1  0
  6  7  1  0
  6  8  1  0
  8  9  1  0
  8  5  1  0
  2 10  1  0
  5 11  1  0
  6 12  1  0
  7 13  1  0
  8 14  1  0
  9 15  1  0
M  END
