
     RDKit          3D

 18 18  0  0  0  0  0  0  0  0999 V2000
    3.2891    0.0592    0.4692 O   0  0  0  0  0  0  0  0  0  0  0  0
    2.3533    0.7451    0.1010 C   0  0  0  0  0  0  0  0  0  0  0  0
    0.9309    0.4885    0.4403 C   0  0  0  0  0  0  0  0  0  0  0  0
    0.6353   -0.9394    0.1682 C   0  0  0  0  0  0  0  0  0  0  0  0
   -0.7664   -1.2320   -0.2821 C   0  0  0  0  0  0  0  0  0  0  0  0
   -1.6835   -0.1132    0.2058 C   0  0  0  0  0  0  0  0  0  0  0  0
   -1.1253    1.1306   -0.4451 C   0  0  0  0  0  0  0  0  0  0  0  0
    0.1516    1.4242   -0.1187 O   0  0  0  0  0  0  0  0  0  0  0  0
    2.5866    1.5982   -0.5160 H   0  0  0  0  0  0  0  0  0  0  0  0
    0.8733    0.6184    1.5644 H   0  0  0  0  0  0  0  0  0  0  0  0
    0.8285   -1.5797    1.0579 H   0  0  0  0  0  0  0  0  0  0  0  0
    1.3155   -1.3348   -0.6260 H   0  0  0  0  0  0  0  0  0  0  0  0
   -0.8330   -1.1959   -1.3996 H   0  0  0  0  0  0  0  0  0  0  0  0
   -1.1520   -2.1999    0.0600 H   0  0  0  0  0  0  0  0  0  0  0  0
   -2.6774   -0.3264   -0.2487 H   0  0  0  0  0  0  0  0  0  0  0  0
   -1.7448   -0.0571    1.2930 H   0  0  0  0  0  0  0  0  0  0  0  0
   -1.1819    0.9476   -1.5556 H   0  0  0  0  0  0  0  0  0  0  0  0
   -1.7998    1.9667   -0.1680 H   0  0  0  0  0  0  0  0  0  0  0  0
  1  2  2  0
  2  3  1  0
  3  4  1  0
  4  5  1  0
  5  6  1  0
  6  7  1  0
  7  8  1  0
  8  3  1  0
  2  9  1  0
  3 10  1  0
  4 11  1  0
  4 12  1  0
  5 13  1  0
  5 14  1  0
  6 15  1  0
  6 16  1  0
  7 17  1  0
  7 18  1  0
M  END
