
     RDKit          3D

 17 17  0  0  0  0  0  0  0  0999 V2000
    2.1072    1.4209    0.9920 O   0  0  0  0  0  0  0  0  0  0  0  0
    2.2297    0.2363    0.7850 C   0  0  0  0  0  0  0  0  0  0  0  0
    2.0110   -0.3519   -0.5606 C   0  0  0  0  0  0  0  0  0  0  0  0
    0.6282    0.0922   -0.9835 C   0  0  0  0  0  0  0  0  0  0  0  0
   -0.4220   -0.3983   -0.0583 C   0  0  0  0  0  0  0  0  0  0  0  0
   -0.0945   -1.0619    0.9268 O   0  0  0  0  0  0  0  0  0  0  0  0
   -1.8236   -0.0721   -0.3466 C   0  0  0  0  0  0  0  0  0  0  0  0
   -2.6263    0.2522    0.9122 C   0  0  0  0  0  0  0  0  0  0  0  0
   -2.8383   -0.8772    0.1514 O   0  0  0  0  0  0  0  0  0  0  0  0
    2.5065   -0.4215    1.6153 H   0  0  0  0  0  0  0  0  0  0  0  0
    2.7598    0.0080   -1.3048 H   0  0  0  0  0  0  0  0  0  0  0  0
    2.0070   -1.4549   -0.5329 H   0  0  0  0  0  0  0  0  0  0  0  0
    0.5880    1.1908   -1.0636 H   0  0  0  0  0  0  0  0  0  0  0  0
    0.4276   -0.3121   -1.9979 H   0  0  0  0  0  0  0  0  0  0  0  0
   -2.0036    0.5350   -1.2469 H   0  0  0  0  0  0  0  0  0  0  0  0
   -3.2706    1.1423    0.8167 H   0  0  0  0  0  0  0  0  0  0  0  0
   -2.1861    0.0724    1.8959 H   0  0  0  0  0  0  0  0  0  0  0  0
  1  2  2  0
  2  3  1  0
  3  4  1  0
  4  5  1  0
  5  6  2  0
  5  7  1  0
  7  8  1  0
  8  9  1  0
  9  7  1  0
  2 10  1  0
  3 11  1  0
  3 12  1  0
  4 13  1  0
  4 14  1  0
  7 15  1  0
  8 16  1  0
  8 17  1  0
M  END
