
     RDKit          3D

 17 19  0  0  0  0  0  0  0  0999 V2000
    2.8953    0.4132   -1.2215 O   0  0  0  0  0  0  0  0  0  0  0  0
    2.3514    0.0644   -0.1935 C   0  0  0  0  0  0  0  0  0  0  0  0
    0.9105    0.1421    0.0095 C   0  0  0  0  0  0  0  0  0  0  0  0
    0.2928    1.3820    0.5531 C   0  0  0  0  0  0  0  0  0  0  0  0
   -1.0119    1.3866    0.3130 C   0  0  0  0  0  0  0  0  0  0  0  0
   -1.3837    0.1366   -0.4197 C   0  0  0  0  0  0  0  0  0  0  0  0
   -1.2930   -1.0197    0.5632 C   0  0  0  0  0  0  0  0  0  0  0  0
    0.1595   -1.1362    0.2131 C   0  0  0  0  0  0  0  0  0  0  0  0
   -0.0775   -0.3059   -0.9777 C   0  0  0  0  0  0  0  0  0  0  0  0
    2.9756   -0.3191    0.5989 H   0  0  0  0  0  0  0  0  0  0  0  0
    0.7958    2.1844    1.0729 H   0  0  0  0  0  0  0  0  0  0  0  0
   -1.7371    2.1465    0.5814 H   0  0  0  0  0  0  0  0  0  0  0  0
   -2.2546    0.1765   -1.0569 H   0  0  0  0  0  0  0  0  0  0  0  0
   -1.9458   -1.8415    0.2115 H   0  0  0  0  0  0  0  0  0  0  0  0
   -1.4253   -0.7201    1.6182 H   0  0  0  0  0  0  0  0  0  0  0  0
    0.6474   -2.1089    0.1290 H   0  0  0  0  0  0  0  0  0  0  0  0
    0.1005   -0.5810   -1.9945 H   0  0  0  0  0  0  0  0  0  0  0  0
  1  2  2  0
  2  3  1  0
  3  4  1  0
  4  5  2  0
  5  6  1  0
  6  7  1  0
  7  8  1  0
  8  9  1  0
  8  3  1  0
  9  3  1  0
  9  6  1  0
  2 10  1  0
  4 11  1  0
  5 12  1  0
  6 13  1  0
  7 14  1  0
  7 15  1  0
  8 16  1  0
  9 17  1  0
M  END
