
     RDKit          3D

 17 18  0  0  0  0  0  0  0  0999 V2000
    2.7189    0.9600   -0.7625 O   0  0  0  0  0  0  0  0  0  0  0  0
    2.0007    0.4046    0.0424 C   0  0  0  0  0  0  0  0  0  0  0  0
    0.8229   -0.3093   -0.4258 C   0  0  0  0  0  0  0  0  0  0  0  0
    0.1324   -1.2154    0.5556 C   0  0  0  0  0  0  0  0  0  0  0  0
   -1.0584   -1.0815   -0.3668 C   0  0  0  0  0  0  0  0  0  0  0  0
   -0.5121    0.3325   -0.2443 C   0  0  0  0  0  0  0  0  0  0  0  0
   -0.9988    1.4499   -0.8065 C   0  0  0  0  0  0  0  0  0  0  0  0
   -1.9014    2.1360   -0.3081 O   0  0  0  0  0  0  0  0  0  0  0  0
   -0.3733    0.0259    1.2234 C   0  0  0  0  0  0  0  0  0  0  0  0
    2.2812    0.4728    1.0795 H   0  0  0  0  0  0  0  0  0  0  0  0
    0.8944   -0.8165   -1.4117 H   0  0  0  0  0  0  0  0  0  0  0  0
    0.4806   -2.0531    0.9704 H   0  0  0  0  0  0  0  0  0  0  0  0
   -2.0403   -1.2402    0.0723 H   0  0  0  0  0  0  0  0  0  0  0  0
   -0.8321   -1.5622   -1.3310 H   0  0  0  0  0  0  0  0  0  0  0  0
   -0.6488    1.8742   -1.7669 H   0  0  0  0  0  0  0  0  0  0  0  0
    0.3511    0.6780    1.7071 H   0  0  0  0  0  0  0  0  0  0  0  0
   -1.3168   -0.0557    1.7730 H   0  0  0  0  0  0  0  0  0  0  0  0
  1  2  2  0
  2  3  1  0
  3  4  1  0
  4  5  1  0
  5  6  1  0
  6  7  1  0
  7  8  2  0
  6  9  1  0
  6  3  1  0
  9  4  1  0
  2 10  1  0
  3 11  1  0
  4 12  1  0
  5 13  1  0
  5 14  1  0
  7 15  1  0
  9 16  1  0
  9 17  1  0
M  END
