
     RDKit          3D

 19 20  0  0  0  0  0  0  0  0999 V2000
    2.8771   -0.9809   -0.0483 O   0  0  0  0  0  0  0  0  0  0  0  0
    1.7013   -1.2412   -0.2546 C   0  0  0  0  0  0  0  0  0  0  0  0
    0.6271   -0.5969    0.5461 C   0  0  0  0  0  0  0  0  0  0  0  0
    0.9601    0.8631    0.7517 C   0  0  0  0  0  0  0  0  0  0  0  0
    0.2546    1.6292   -0.3413 C   0  0  0  0  0  0  0  0  0  0  0  0
   -0.8142    0.7203   -0.8943 C   0  0  0  0  0  0  0  0  0  0  0  0
   -0.6876   -0.5729   -0.1486 C   0  0  0  0  0  0  0  0  0  0  0  0
   -1.9054   -1.1769    0.4001 C   0  0  0  0  0  0  0  0  0  0  0  0
   -1.2133   -1.7404   -0.6680 O   0  0  0  0  0  0  0  0  0  0  0  0
    1.4999   -1.9586   -1.0446 H   0  0  0  0  0  0  0  0  0  0  0  0
    0.5354   -1.1415    1.5098 H   0  0  0  0  0  0  0  0  0  0  0  0
    0.6534    1.2133    1.7602 H   0  0  0  0  0  0  0  0  0  0  0  0
    2.0455    1.0540    0.6360 H   0  0  0  0  0  0  0  0  0  0  0  0
    0.9138    1.9155   -1.1680 H   0  0  0  0  0  0  0  0  0  0  0  0
   -0.1552    2.5694    0.0867 H   0  0  0  0  0  0  0  0  0  0  0  0
   -1.7932    1.1946   -0.6457 H   0  0  0  0  0  0  0  0  0  0  0  0
   -0.7816    0.6204   -1.9824 H   0  0  0  0  0  0  0  0  0  0  0  0
   -2.8937   -0.7468    0.0972 H   0  0  0  0  0  0  0  0  0  0  0  0
   -1.8241   -1.6237    1.4080 H   0  0  0  0  0  0  0  0  0  0  0  0
  1  2  2  0
  2  3  1  0
  3  4  1  0
  4  5  1  0
  5  6  1  0
  6  7  1  0
  7  8  1  0
  8  9  1  0
  7  3  1  0
  9  7  1  0
  2 10  1  0
  3 11  1  0
  4 12  1  0
  4 13  1  0
  5 14  1  0
  5 15  1  0
  6 16  1  0
  6 17  1  0
  8 18  1  0
  8 19  1  0
M  END
