
     RDKit          3D

 17 18  0  0  0  0  0  0  0  0999 V2000
    3.0093    0.9220    0.6017 O   0  0  0  0  0  0  0  0  0  0  0  0
    2.4039   -0.1789    0.5982 C   0  0  0  0  0  0  0  0  0  0  0  0
    1.0802   -0.3139    0.0097 C   0  0  0  0  0  0  0  0  0  0  0  0
    0.3173   -1.3919   -0.0738 C   0  0  0  0  0  0  0  0  0  0  0  0
   -0.9513   -0.9025   -0.7014 C   0  0  0  0  0  0  0  0  0  0  0  0
   -1.6666   -0.0380    0.2743 C   0  0  0  0  0  0  0  0  0  0  0  0
   -0.8202    1.2437    0.2667 C   0  0  0  0  0  0  0  0  0  0  0  0
    0.3283    0.7850   -0.6251 C   0  0  0  0  0  0  0  0  0  0  0  0
   -0.4109    0.0582   -1.5916 O   0  0  0  0  0  0  0  0  0  0  0  0
    2.8885   -1.0353    1.0452 H   0  0  0  0  0  0  0  0  0  0  0  0
    0.5972   -2.3662    0.2502 H   0  0  0  0  0  0  0  0  0  0  0  0
   -1.5247   -1.6680   -1.1926 H   0  0  0  0  0  0  0  0  0  0  0  0
   -2.6906    0.1776   -0.1065 H   0  0  0  0  0  0  0  0  0  0  0  0
   -1.6377   -0.4133    1.2947 H   0  0  0  0  0  0  0  0  0  0  0  0
   -0.4729    1.5163    1.2647 H   0  0  0  0  0  0  0  0  0  0  0  0
   -1.3639    2.0230   -0.2737 H   0  0  0  0  0  0  0  0  0  0  0  0
    0.9141    1.5822   -1.0407 H   0  0  0  0  0  0  0  0  0  0  0  0
  1  2  2  0
  2  3  1  0
  3  4  2  0
  4  5  1  0
  5  6  1  0
  6  7  1  0
  7  8  1  0
  8  9  1  0
  8  3  1  0
  9  5  1  0
  2 10  1  0
  4 11  1  0
  5 12  1  0
  6 13  1  0
  6 14  1  0
  7 15  1  0
  7 16  1  0
  8 17  1  0
M  END
