
     RDKit          3D

 19 19  0  0  0  0  0  0  0  0999 V2000
    3.6740    0.9268    0.1481 O   0  0  0  0  0  0  0  0  0  0  0  0
    3.1202   -0.0295    0.6473 C   0  0  0  0  0  0  0  0  0  0  0  0
    1.9156   -0.6004    0.0408 C   0  0  0  0  0  0  0  0  0  0  0  0
    0.8464    0.4623   -0.1306 C   0  0  0  0  0  0  0  0  0  0  0  0
    1.0719    1.6034    0.1708 O   0  0  0  0  0  0  0  0  0  0  0  0
   -0.4464   -0.0406   -0.6814 C   0  0  0  0  0  0  0  0  0  0  0  0
   -1.5297    0.9995   -0.7888 C   0  0  0  0  0  0  0  0  0  0  0  0
   -2.5038    0.0121   -0.1444 C   0  0  0  0  0  0  0  0  0  0  0  0
   -1.2827   -0.6878    0.4244 C   0  0  0  0  0  0  0  0  0  0  0  0
    3.5271   -0.4566    1.5542 H   0  0  0  0  0  0  0  0  0  0  0  0
    2.1123   -0.9295   -1.0274 H   0  0  0  0  0  0  0  0  0  0  0  0
    1.5127   -1.4922    0.5581 H   0  0  0  0  0  0  0  0  0  0  0  0
   -0.3586   -0.6787   -1.5942 H   0  0  0  0  0  0  0  0  0  0  0  0
   -1.3304    1.8341   -0.0853 H   0  0  0  0  0  0  0  0  0  0  0  0
   -1.7866    1.2864   -1.8236 H   0  0  0  0  0  0  0  0  0  0  0  0
   -3.0344   -0.6248   -0.8579 H   0  0  0  0  0  0  0  0  0  0  0  0
   -3.1704    0.4547    0.6221 H   0  0  0  0  0  0  0  0  0  0  0  0
   -1.0580   -0.2660    1.4224 H   0  0  0  0  0  0  0  0  0  0  0  0
   -1.2791   -1.7733    0.3219 H   0  0  0  0  0  0  0  0  0  0  0  0
  1  2  2  0
  2  3  1  0
  3  4  1  0
  4  5  2  0
  4  6  1  0
  6  7  1  0
  7  8  1  0
  8  9  1  0
  9  6  1  0
  2 10  1  0
  3 11  1  0
  3 12  1  0
  6 13  1  0
  7 14  1  0
  7 15  1  0
  8 16  1  0
  8 17  1  0
  9 18  1  0
  9 19  1  0
M  END
