
     RDKit          3D

 14 13  0  0  0  0  0  0  0  0999 V2000
    3.8799   -0.5986    1.6151 O   0  0  0  0  0  0  0  0  0  0  0  0
    2.7095   -0.2861    1.9512 C   0  0  0  0  0  0  0  0  0  0  0  0
    1.7040   -0.1329    0.9391 C   0  0  0  0  0  0  0  0  0  0  0  0
    0.8592    0.0138    0.0693 C   0  0  0  0  0  0  0  0  0  0  0  0
   -0.1552    0.2118   -0.9597 C   0  0  0  0  0  0  0  0  0  0  0  0
   -1.4954   -0.2994   -0.4780 C   0  0  0  0  0  0  0  0  0  0  0  0
   -1.9237    0.4226    0.7498 C   0  0  0  0  0  0  0  0  0  0  0  0
   -2.9758    0.1357    1.2670 O   0  0  0  0  0  0  0  0  0  0  0  0
    2.5214   -0.1472    3.0071 H   0  0  0  0  0  0  0  0  0  0  0  0
   -0.2984    1.3091   -1.1702 H   0  0  0  0  0  0  0  0  0  0  0  0
    0.1373   -0.2392   -1.9271 H   0  0  0  0  0  0  0  0  0  0  0  0
   -2.2788   -0.2281   -1.2302 H   0  0  0  0  0  0  0  0  0  0  0  0
   -1.3645   -1.3647   -0.2202 H   0  0  0  0  0  0  0  0  0  0  0  0
   -1.3193    1.2033    1.1996 H   0  0  0  0  0  0  0  0  0  0  0  0
  1  2  2  0
  2  3  1  0
  3  4  3  0
  4  5  1  0
  5  6  1  0
  6  7  1  0
  7  8  2  0
  2  9  1  0
  5 10  1  0
  5 11  1  0
  6 12  1  0
  6 13  1  0
  7 14  1  0
M  END
