
     RDKit          3D

 15 14  0  0  0  0  0  0  0  0999 V2000
    4.3264    0.2077    3.4613 O   0  0  0  0  0  0  0  0  0  0  0  0
    4.2127   -0.1886    2.5102 C   0  0  0  0  0  0  0  0  0  0  0  0
    2.6705    0.0511    1.8612 C   0  0  0  0  0  0  0  0  0  0  0  0
    1.9018    0.1696    1.5436 C   0  0  0  0  0  0  0  0  0  0  0  0
    0.2223    0.3966    0.8473 C   0  0  0  0  0  0  0  0  0  0  0  0
   -0.6496    0.4990    0.4881 C   0  0  0  0  0  0  0  0  0  0  0  0
   -2.0322    0.6498   -0.0662 C   0  0  0  0  0  0  0  0  0  0  0  0
   -1.8372   -0.3687   -1.3255 C   0  0  0  0  0  0  0  0  0  0  0  0
   -2.9348   -0.7273   -1.8580 O   0  0  0  0  0  0  0  0  0  0  0  0
    4.6839   -0.7513    1.6731 H   0  0  0  0  0  0  0  0  0  0  0  0
   -2.2639    1.5914   -0.3223 H   0  0  0  0  0  0  0  0  0  0  0  0
   -2.7206    0.0416    0.6615 H   0  0  0  0  0  0  0  0  0  0  0  0
   -1.3591    0.4906   -2.1090 H   0  0  0  0  0  0  0  0  0  0  0  0
   -1.0430   -1.0466   -1.1920 H   0  0  0  0  0  0  0  0  0  0  0  0
   -3.1772   -1.0150   -2.7936 H   0  0  0  0  0  0  0  0  0  0  0  0
  1  2  2  0
  2  3  1  0
  3  4  3  0
  4  5  1  0
  5  6  3  0
  6  7  1  0
  7  8  1  0
  8  9  1  0
  2 10  1  0
  7 11  1  0
  7 12  1  0
  8 13  1  0
  8 14  1  0
  9 15  1  0
M  END
