
     RDKit          3D

 14 13  0  0  0  0  0  0  0  0999 V2000
   -2.6381   -0.6539   -0.8200 O   0  0  0  0  0  0  0  0  0  0  0  0
   -2.2416   -0.2663    0.2458 C   0  0  0  0  0  0  0  0  0  0  0  0
   -1.0281    0.5626    0.3143 C   0  0  0  0  0  0  0  0  0  0  0  0
    0.1487   -0.3889    0.1308 C   0  0  0  0  0  0  0  0  0  0  0  0
    1.4737    0.3088    0.1746 C   0  0  0  0  0  0  0  0  0  0  0  0
    2.4445   -0.7038   -0.0086 O   0  0  0  0  0  0  0  0  0  0  0  0
   -2.7630   -0.5191    1.1400 H   0  0  0  0  0  0  0  0  0  0  0  0
   -1.0813    1.2877   -0.5342 H   0  0  0  0  0  0  0  0  0  0  0  0
   -0.9947    1.0885    1.2783 H   0  0  0  0  0  0  0  0  0  0  0  0
    0.0245   -0.8905   -0.8282 H   0  0  0  0  0  0  0  0  0  0  0  0
    0.1173   -1.0963    1.0115 H   0  0  0  0  0  0  0  0  0  0  0  0
    1.5616    0.9821   -0.7133 H   0  0  0  0  0  0  0  0  0  0  0  0
    1.7030    0.8003    1.1228 H   0  0  0  0  0  0  0  0  0  0  0  0
    3.2736   -0.5111    0.4925 H   0  0  0  0  0  0  0  0  0  0  0  0
  1  2  2  0
  2  3  1  0
  3  4  1  0
  4  5  1  0
  5  6  1  0
  2  7  1  0
  3  8  1  0
  3  9  1  0
  4 10  1  0
  4 11  1  0
  5 12  1  0
  5 13  1  0
  6 14  1  0
M  END
