
     RDKit          3D

 14 15  0  0  0  0  0  0  0  0999 V2000
    2.5881    1.7316   -0.1222 O   0  0  0  0  0  0  0  0  0  0  0  0
    2.5718    0.5293   -0.2899 C   0  0  0  0  0  0  0  0  0  0  0  0
    1.3408   -0.2298   -0.6312 C   0  0  0  0  0  0  0  0  0  0  0  0
    0.4650    0.4726   -1.4846 O   0  0  0  0  0  0  0  0  0  0  0  0
    0.0492    0.2551   -0.1037 C   0  0  0  0  0  0  0  0  0  0  0  0
   -1.1252   -0.6658    0.0136 C   0  0  0  0  0  0  0  0  0  0  0  0
   -2.3212   -0.1107    0.7489 C   0  0  0  0  0  0  0  0  0  0  0  0
   -2.3393   -0.2593   -0.6447 O   0  0  0  0  0  0  0  0  0  0  0  0
    3.5213    0.0048   -0.1786 H   0  0  0  0  0  0  0  0  0  0  0  0
    1.4326   -1.3256   -0.7635 H   0  0  0  0  0  0  0  0  0  0  0  0
    0.0262    1.1954    0.4841 H   0  0  0  0  0  0  0  0  0  0  0  0
   -0.9865   -1.7563   -0.0169 H   0  0  0  0  0  0  0  0  0  0  0  0
   -2.2665    0.9433    1.0763 H   0  0  0  0  0  0  0  0  0  0  0  0
   -2.9565   -0.7846    1.3488 H   0  0  0  0  0  0  0  0  0  0  0  0
  1  2  2  0
  2  3  1  0
  3  4  1  0
  4  5  1  0
  5  6  1  0
  6  7  1  0
  7  8  1  0
  5  3  1  0
  8  6  1  0
  2  9  1  0
  3 10  1  0
  5 11  1  0
  6 12  1  0
  7 13  1  0
  7 14  1  0
M  END
