
     RDKit          3D

 21 21  0  0  0  0  0  0  0  0999 V2000
    3.7212    0.7486   -0.6120 O   0  0  0  0  0  0  0  0  0  0  0  0
    3.3153   -0.0864    0.1784 C   0  0  0  0  0  0  0  0  0  0  0  0
    1.8593   -0.3194    0.4086 C   0  0  0  0  0  0  0  0  0  0  0  0
    1.0960    0.6057   -0.4588 C   0  0  0  0  0  0  0  0  0  0  0  0
   -0.3841    0.5245   -0.3718 C   0  0  0  0  0  0  0  0  0  0  0  0
   -0.9934   -0.7810   -0.7155 C   0  0  0  0  0  0  0  0  0  0  0  0
   -2.3213   -0.7287    0.0434 C   0  0  0  0  0  0  0  0  0  0  0  0
   -2.2625    0.6616    0.6818 C   0  0  0  0  0  0  0  0  0  0  0  0
   -0.8730    0.7723    0.9105 O   0  0  0  0  0  0  0  0  0  0  0  0
    4.0677   -0.6573    0.7113 H   0  0  0  0  0  0  0  0  0  0  0  0
    1.6833   -1.3951    0.1113 H   0  0  0  0  0  0  0  0  0  0  0  0
    1.6966   -0.1805    1.4923 H   0  0  0  0  0  0  0  0  0  0  0  0
    1.3933    1.6499   -0.2047 H   0  0  0  0  0  0  0  0  0  0  0  0
    1.4184    0.4514   -1.5083 H   0  0  0  0  0  0  0  0  0  0  0  0
   -0.8268    1.3033   -1.0271 H   0  0  0  0  0  0  0  0  0  0  0  0
   -0.4669   -1.6639   -0.3429 H   0  0  0  0  0  0  0  0  0  0  0  0
   -1.2131   -0.8625   -1.8189 H   0  0  0  0  0  0  0  0  0  0  0  0
   -2.3828   -1.4814    0.8317 H   0  0  0  0  0  0  0  0  0  0  0  0
   -3.1715   -0.7359   -0.6587 H   0  0  0  0  0  0  0  0  0  0  0  0
   -2.8465    0.7287    1.5983 H   0  0  0  0  0  0  0  0  0  0  0  0
   -2.5093    1.4462   -0.0603 H   0  0  0  0  0  0  0  0  0  0  0  0
  1  2  2  0
  2  3  1  0
  3  4  1  0
  4  5  1  0
  5  6  1  0
  6  7  1  0
  7  8  1  0
  8  9  1  0
  9  5  1  0
  2 10  1  0
  3 11  1  0
  3 12  1  0
  4 13  1  0
  4 14  1  0
  5 15  1  0
  6 16  1  0
  6 17  1  0
  7 18  1  0
  7 19  1  0
  8 20  1  0
  8 21  1  0
M  END
