
     RDKit          3D

 19 19  0  0  0  0  0  0  0  0999 V2000
    2.0398    1.2777    1.1739 O   0  0  0  0  0  0  0  0  0  0  0  0
    2.7695    0.5285    0.5809 C   0  0  0  0  0  0  0  0  0  0  0  0
    2.2361   -0.1411   -0.6418 C   0  0  0  0  0  0  0  0  0  0  0  0
    0.9376    0.2246   -0.9028 O   0  0  0  0  0  0  0  0  0  0  0  0
    0.0543   -0.0861    0.1121 C   0  0  0  0  0  0  0  0  0  0  0  0
   -1.0229   -0.9902   -0.4598 C   0  0  0  0  0  0  0  0  0  0  0  0
   -2.2492   -0.4159    0.2601 C   0  0  0  0  0  0  0  0  0  0  0  0
   -1.8660    1.0573    0.2039 C   0  0  0  0  0  0  0  0  0  0  0  0
   -0.5529    1.0347    0.5992 O   0  0  0  0  0  0  0  0  0  0  0  0
    3.7862    0.3170    0.8872 H   0  0  0  0  0  0  0  0  0  0  0  0
    2.8598    0.2272   -1.4918 H   0  0  0  0  0  0  0  0  0  0  0  0
    2.3864   -1.2395   -0.6073 H   0  0  0  0  0  0  0  0  0  0  0  0
    0.5689   -0.5900    0.9810 H   0  0  0  0  0  0  0  0  0  0  0  0
   -1.1765   -0.7532   -1.5327 H   0  0  0  0  0  0  0  0  0  0  0  0
   -0.8654   -2.0407   -0.2481 H   0  0  0  0  0  0  0  0  0  0  0  0
   -2.1918   -0.7784    1.3021 H   0  0  0  0  0  0  0  0  0  0  0  0
   -3.1801   -0.6390   -0.2563 H   0  0  0  0  0  0  0  0  0  0  0  0
   -1.9993    1.4005   -0.8466 H   0  0  0  0  0  0  0  0  0  0  0  0
   -2.5345    1.6066    0.8868 H   0  0  0  0  0  0  0  0  0  0  0  0
  1  2  2  0
  2  3  1  0
  3  4  1  0
  4  5  1  0
  5  6  1  0
  6  7  1  0
  7  8  1  0
  8  9  1  0
  9  5  1  0
  2 10  1  0
  3 11  1  0
  3 12  1  0
  5 13  1  0
  6 14  1  0
  6 15  1  0
  7 16  1  0
  7 17  1  0
  8 18  1  0
  8 19  1  0
M  END
