
     RDKit          3D

 15 15  0  0  0  0  0  0  0  0999 V2000
    2.2758    1.3662   -0.7758 O   0  0  0  0  0  0  0  0  0  0  0  0
    2.1908    0.6739    0.2468 C   0  0  0  0  0  0  0  0  0  0  0  0
    0.9833   -0.0375    0.5772 C   0  0  0  0  0  0  0  0  0  0  0  0
    0.9109   -0.7441    1.6299 O   0  0  0  0  0  0  0  0  0  0  0  0
   -0.2260    0.0082   -0.2713 C   0  0  0  0  0  0  0  0  0  0  0  0
   -0.1490    0.7695   -1.4060 O   0  0  0  0  0  0  0  0  0  0  0  0
   -1.4447    0.2737    0.5740 C   0  0  0  0  0  0  0  0  0  0  0  0
   -1.6732   -1.0993    0.6104 O   0  0  0  0  0  0  0  0  0  0  0  0
   -0.8087   -1.3756   -0.4283 C   0  0  0  0  0  0  0  0  0  0  0  0
    3.0486    0.6078    0.9012 H   0  0  0  0  0  0  0  0  0  0  0  0
   -0.3290    1.7172   -1.1473 H   0  0  0  0  0  0  0  0  0  0  0  0
   -1.2179    0.6709    1.5895 H   0  0  0  0  0  0  0  0  0  0  0  0
   -2.2223    0.8718    0.0665 H   0  0  0  0  0  0  0  0  0  0  0  0
   -1.2683   -1.5052   -1.4103 H   0  0  0  0  0  0  0  0  0  0  0  0
   -0.0704   -2.1976   -0.2266 H   0  0  0  0  0  0  0  0  0  0  0  0
  1  2  2  0
  2  3  1  0
  3  4  2  0
  3  5  1  0
  5  6  1  0
  5  7  1  0
  7  8  1  0
  8  9  1  0
  9  5  1  0
  2 10  1  0
  6 11  1  0
  7 12  1  0
  7 13  1  0
  9 14  1  0
  9 15  1  0
M  END
