
     RDKit          3D

 19 20  0  0  0  0  0  0  0  0999 V2000
    1.8784    0.5269    2.0570 O   0  0  0  0  0  0  0  0  0  0  0  0
    2.2389    0.4987    0.9026 C   0  0  0  0  0  0  0  0  0  0  0  0
    1.9131   -0.6694    0.0603 C   0  0  0  0  0  0  0  0  0  0  0  0
    0.8271   -0.4888   -0.9208 C   0  0  0  0  0  0  0  0  0  0  0  0
   -0.5243   -0.1505   -0.4969 C   0  0  0  0  0  0  0  0  0  0  0  0
   -0.9635    1.0449    0.2421 C   0  0  0  0  0  0  0  0  0  0  0  0
   -2.3560    0.4018    0.3607 C   0  0  0  0  0  0  0  0  0  0  0  0
   -1.6818   -0.8192   -0.2694 C   0  0  0  0  0  0  0  0  0  0  0  0
   -1.4706   -0.5673   -1.6022 O   0  0  0  0  0  0  0  0  0  0  0  0
    2.7937    1.3327    0.5102 H   0  0  0  0  0  0  0  0  0  0  0  0
    2.9007   -0.9425   -0.4331 H   0  0  0  0  0  0  0  0  0  0  0  0
    1.7342   -1.5674    0.7182 H   0  0  0  0  0  0  0  0  0  0  0  0
    1.1759    0.3198   -1.6429 H   0  0  0  0  0  0  0  0  0  0  0  0
    0.8752   -1.3985   -1.6015 H   0  0  0  0  0  0  0  0  0  0  0  0
   -0.9890    2.0102   -0.3003 H   0  0  0  0  0  0  0  0  0  0  0  0
   -0.5702    1.1284    1.2443 H   0  0  0  0  0  0  0  0  0  0  0  0
   -2.7331    0.2583    1.3642 H   0  0  0  0  0  0  0  0  0  0  0  0
   -3.0927    0.9023   -0.2799 H   0  0  0  0  0  0  0  0  0  0  0  0
   -1.9561   -1.8206    0.0873 H   0  0  0  0  0  0  0  0  0  0  0  0
  1  2  2  0
  2  3  1  0
  3  4  1  0
  4  5  1  0
  5  6  1  0
  6  7  1  0
  7  8  1  0
  8  9  1  0
  8  5  1  0
  9  5  1  0
  2 10  1  0
  3 11  1  0
  3 12  1  0
  4 13  1  0
  4 14  1  0
  6 15  1  0
  6 16  1  0
  7 17  1  0
  7 18  1  0
  8 19  1  0
M  END
