
     RDKit          3D

 16 16  0  0  0  0  0  0  0  0999 V2000
   -1.4286    2.3423   -0.1673 O   0  0  0  0  0  0  0  0  0  0  0  0
   -1.1892    1.2500    0.3184 C   0  0  0  0  0  0  0  0  0  0  0  0
   -0.7351    0.1654   -0.5617 C   0  0  0  0  0  0  0  0  0  0  0  0
   -0.9139   -1.2421    0.0267 C   0  0  0  0  0  0  0  0  0  0  0  0
    0.4838   -1.0610    0.6239 C   0  0  0  0  0  0  0  0  0  0  0  0
    0.7389   -0.1253   -0.5642 C   0  0  0  0  0  0  0  0  0  0  0  0
    1.6342    0.9666   -0.1843 C   0  0  0  0  0  0  0  0  0  0  0  0
    2.0053    1.1706    0.9619 O   0  0  0  0  0  0  0  0  0  0  0  0
   -1.3320    1.1529    1.3944 H   0  0  0  0  0  0  0  0  0  0  0  0
   -1.2286    0.1930   -1.5530 H   0  0  0  0  0  0  0  0  0  0  0  0
   -1.7186   -1.3367    0.7478 H   0  0  0  0  0  0  0  0  0  0  0  0
   -0.8455   -1.9945   -0.7796 H   0  0  0  0  0  0  0  0  0  0  0  0
    0.4037   -0.4812    1.5447 H   0  0  0  0  0  0  0  0  0  0  0  0
    1.1115   -1.9500    0.6135 H   0  0  0  0  0  0  0  0  0  0  0  0
    1.0064   -0.7025   -1.4776 H   0  0  0  0  0  0  0  0  0  0  0  0
    2.0075    1.6523   -0.9436 H   0  0  0  0  0  0  0  0  0  0  0  0
  1  2  2  0
  2  3  1  0
  3  4  1  0
  4  5  1  0
  5  6  1  0
  6  7  1  0
  7  8  2  0
  6  3  1  0
  2  9  1  0
  3 10  1  0
  4 11  1  0
  4 12  1  0
  5 13  1  0
  5 14  1  0
  6 15  1  0
  7 16  1  0
M  END
