
     RDKit          3D

 15 15  0  0  0  0  0  0  0  0999 V2000
    2.4334   -1.2212   -0.1911 O   0  0  0  0  0  0  0  0  0  0  0  0
    1.8414   -0.1922   -0.4634 C   0  0  0  0  0  0  0  0  0  0  0  0
    0.7302    0.3854    0.3242 C   0  0  0  0  0  0  0  0  0  0  0  0
    0.2929   -0.4605    1.4286 C   0  0  0  0  0  0  0  0  0  0  0  0
    0.8598   -0.6237    2.5366 O   0  0  0  0  0  0  0  0  0  0  0  0
   -0.8909   -1.0957    1.0822 O   0  0  0  0  0  0  0  0  0  0  0  0
   -1.2587   -0.7303   -0.2453 C   0  0  0  0  0  0  0  0  0  0  0  0
   -0.5075    0.5141   -0.5723 C   0  0  0  0  0  0  0  0  0  0  0  0
   -1.1458    1.6820   -0.1744 O   0  0  0  0  0  0  0  0  0  0  0  0
    2.1459    0.3495   -1.3509 H   0  0  0  0  0  0  0  0  0  0  0  0
    1.0508    1.3812    0.6917 H   0  0  0  0  0  0  0  0  0  0  0  0
   -2.3647   -0.6195   -0.2931 H   0  0  0  0  0  0  0  0  0  0  0  0
   -0.8943   -1.5554   -0.8916 H   0  0  0  0  0  0  0  0  0  0  0  0
   -0.1700    0.5312   -1.6125 H   0  0  0  0  0  0  0  0  0  0  0  0
   -2.1224    1.6551   -0.2687 H   0  0  0  0  0  0  0  0  0  0  0  0
  1  2  2  0
  2  3  1  0
  3  4  1  0
  4  5  2  0
  4  6  1  0
  6  7  1  0
  7  8  1  0
  8  9  1  0
  8  3  1  0
  2 10  1  0
  3 11  1  0
  7 12  1  0
  7 13  1  0
  8 14  1  0
  9 15  1  0
M  END
