
     RDKit          3D

 19 19  0  0  0  0  0  0  0  0999 V2000
    2.5805    0.6912    1.5364 O   0  0  0  0  0  0  0  0  0  0  0  0
    2.2252    0.0309    0.5795 C   0  0  0  0  0  0  0  0  0  0  0  0
    0.8024   -0.3885    0.5198 C   0  0  0  0  0  0  0  0  0  0  0  0
    0.4608   -1.1269   -0.7334 C   0  0  0  0  0  0  0  0  0  0  0  0
   -0.8103   -1.6513   -0.6091 O   0  0  0  0  0  0  0  0  0  0  0  0
   -1.7725   -0.7624   -0.2373 C   0  0  0  0  0  0  0  0  0  0  0  0
   -1.3467    0.6501   -0.1082 C   0  0  0  0  0  0  0  0  0  0  0  0
   -0.0371    0.8684    0.5649 C   0  0  0  0  0  0  0  0  0  0  0  0
    0.6907    1.9309   -0.0050 O   0  0  0  0  0  0  0  0  0  0  0  0
    2.9350   -0.2295   -0.1870 H   0  0  0  0  0  0  0  0  0  0  0  0
    0.5712   -1.0399    1.3886 H   0  0  0  0  0  0  0  0  0  0  0  0
    1.1606   -1.9997   -0.8264 H   0  0  0  0  0  0  0  0  0  0  0  0
    0.5203   -0.5108   -1.6332 H   0  0  0  0  0  0  0  0  0  0  0  0
   -2.5933   -0.8009   -1.0113 H   0  0  0  0  0  0  0  0  0  0  0  0
   -2.2590   -1.0874    0.7152 H   0  0  0  0  0  0  0  0  0  0  0  0
   -2.1279    1.1851    0.5074 H   0  0  0  0  0  0  0  0  0  0  0  0
   -1.3865    1.1267   -1.1067 H   0  0  0  0  0  0  0  0  0  0  0  0
   -0.1702    1.1367    1.6342 H   0  0  0  0  0  0  0  0  0  0  0  0
    0.5567    1.9771   -0.9884 H   0  0  0  0  0  0  0  0  0  0  0  0
  1  2  2  0
  2  3  1  0
  3  4  1  0
  4  5  1  0
  5  6  1  0
  6  7  1  0
  7  8  1  0
  8  9  1  0
  8  3  1  0
  2 10  1  0
  3 11  1  0
  4 12  1  0
  4 13  1  0
  6 14  1  0
  6 15  1  0
  7 16  1  0
  7 17  1  0
  8 18  1  0
  9 19  1  0
M  END
