
     RDKit          3D

 17 18  0  0  0  0  0  0  0  0999 V2000
    1.2680    1.5531   -1.5928 O   0  0  0  0  0  0  0  0  0  0  0  0
    1.5076    0.5899   -0.8862 C   0  0  0  0  0  0  0  0  0  0  0  0
    1.0197    0.4913    0.5034 C   0  0  0  0  0  0  0  0  0  0  0  0
    0.5007   -0.8546    0.9278 C   0  0  0  0  0  0  0  0  0  0  0  0
   -0.2916   -1.2447   -0.3144 C   0  0  0  0  0  0  0  0  0  0  0  0
   -1.1966    0.0020   -0.3318 C   0  0  0  0  0  0  0  0  0  0  0  0
   -1.2268    0.6012   -1.5610 O   0  0  0  0  0  0  0  0  0  0  0  0
   -0.4443    0.7871    0.7109 C   0  0  0  0  0  0  0  0  0  0  0  0
   -0.3915   -0.1713    1.7502 O   0  0  0  0  0  0  0  0  0  0  0  0
    2.1014   -0.2038   -1.3227 H   0  0  0  0  0  0  0  0  0  0  0  0
    1.6189    1.0372    1.2517 H   0  0  0  0  0  0  0  0  0  0  0  0
    1.1619   -1.5691    1.3501 H   0  0  0  0  0  0  0  0  0  0  0  0
    0.3208   -1.1950   -1.2210 H   0  0  0  0  0  0  0  0  0  0  0  0
   -0.8670   -2.1631   -0.1837 H   0  0  0  0  0  0  0  0  0  0  0  0
   -2.1690   -0.3307    0.0416 H   0  0  0  0  0  0  0  0  0  0  0  0
   -2.1588    0.8996   -1.7318 H   0  0  0  0  0  0  0  0  0  0  0  0
   -0.7535    1.7709    0.9607 H   0  0  0  0  0  0  0  0  0  0  0  0
  1  2  2  0
  2  3  1  0
  3  4  1  0
  4  5  1  0
  5  6  1  0
  6  7  1  0
  6  8  1  0
  8  9  1  0
  8  3  1  0
  9  4  1  0
  2 10  1  0
  3 11  1  0
  4 12  1  0
  5 13  1  0
  5 14  1  0
  6 15  1  0
  7 16  1  0
  8 17  1  0
M  END
