
     RDKit          3D

 17 16  0  0  0  0  0  0  0  0999 V2000
    2.8693    1.7032    0.4839 O   0  0  0  0  0  0  0  0  0  0  0  0
    2.9188    0.4588    0.5454 C   0  0  0  0  0  0  0  0  0  0  0  0
    1.7305   -0.3436    0.4496 C   0  0  0  0  0  0  0  0  0  0  0  0
    1.7905   -1.5828    0.5121 O   0  0  0  0  0  0  0  0  0  0  0  0
    0.4249    0.3156    0.2750 C   0  0  0  0  0  0  0  0  0  0  0  0
   -0.7103   -0.6903    0.1943 C   0  0  0  0  0  0  0  0  0  0  0  0
   -0.5409   -1.5511   -0.8681 O   0  0  0  0  0  0  0  0  0  0  0  0
   -2.0328    0.0678    0.0805 C   0  0  0  0  0  0  0  0  0  0  0  0
   -2.0433    0.8139   -1.1097 O   0  0  0  0  0  0  0  0  0  0  0  0
    3.8691   -0.0363    0.6731 H   0  0  0  0  0  0  0  0  0  0  0  0
    0.2760    1.0398    1.1009 H   0  0  0  0  0  0  0  0  0  0  0  0
    0.3723    0.9138   -0.6623 H   0  0  0  0  0  0  0  0  0  0  0  0
   -0.7397   -1.2581    1.1454 H   0  0  0  0  0  0  0  0  0  0  0  0
   -1.4312   -1.7571   -1.2842 H   0  0  0  0  0  0  0  0  0  0  0  0
   -2.1317    0.7809    0.9211 H   0  0  0  0  0  0  0  0  0  0  0  0
   -2.8902   -0.6051    0.0715 H   0  0  0  0  0  0  0  0  0  0  0  0
   -1.7314    1.7305   -0.9498 H   0  0  0  0  0  0  0  0  0  0  0  0
  1  2  2  0
  2  3  1  0
  3  4  2  0
  3  5  1  0
  5  6  1  0
  6  7  1  0
  6  8  1  0
  8  9  1  0
  2 10  1  0
  5 11  1  0
  5 12  1  0
  6 13  1  0
  7 14  1  0
  8 15  1  0
  8 16  1  0
  9 17  1  0
M  END
