
     RDKit          3D

 17 18  0  0  0  0  0  0  0  0999 V2000
   -2.6375   -0.5518    1.2960 O   0  0  0  0  0  0  0  0  0  0  0  0
   -1.9696   -0.0260    0.3978 C   0  0  0  0  0  0  0  0  0  0  0  0
   -0.5193   -0.2405    0.4367 C   0  0  0  0  0  0  0  0  0  0  0  0
   -0.1004   -1.0319    1.5246 O   0  0  0  0  0  0  0  0  0  0  0  0
    0.1790   -0.5281   -0.8379 C   0  0  0  0  0  0  0  0  0  0  0  0
   -0.0374    0.8995   -1.2109 C   0  0  0  0  0  0  0  0  0  0  0  0
    0.3096    0.9755    0.2338 C   0  0  0  0  0  0  0  0  0  0  0  0
    1.4142    0.0095   -0.1352 C   0  0  0  0  0  0  0  0  0  0  0  0
    1.9398   -0.7593    0.8678 O   0  0  0  0  0  0  0  0  0  0  0  0
   -2.4526    0.5519   -0.3577 H   0  0  0  0  0  0  0  0  0  0  0  0
   -0.8612   -1.1069    2.1365 H   0  0  0  0  0  0  0  0  0  0  0  0
    0.1439   -1.3374   -1.4186 H   0  0  0  0  0  0  0  0  0  0  0  0
   -1.0336    1.1228   -1.5596 H   0  0  0  0  0  0  0  0  0  0  0  0
    0.8003    1.3095   -1.8320 H   0  0  0  0  0  0  0  0  0  0  0  0
    0.3978    1.7828    0.8143 H   0  0  0  0  0  0  0  0  0  0  0  0
    2.1277    0.5183   -0.8142 H   0  0  0  0  0  0  0  0  0  0  0  0
    2.2992   -1.5877    0.4585 H   0  0  0  0  0  0  0  0  0  0  0  0
  1  2  2  0
  2  3  1  0
  3  4  1  0
  3  5  1  0
  5  6  1  0
  6  7  1  0
  7  8  1  0
  8  9  1  0
  7  3  1  0
  8  5  1  0
  2 10  1  0
  4 11  1  0
  5 12  1  0
  6 13  1  0
  6 14  1  0
  7 15  1  0
  8 16  1  0
  9 17  1  0
M  END
