
     RDKit          3D

 15 16  0  0  0  0  0  0  0  0999 V2000
    2.3773   -1.2965   -0.3214 O   0  0  0  0  0  0  0  0  0  0  0  0
    2.0773   -0.5626    0.6562 C   0  0  0  0  0  0  0  0  0  0  0  0
    0.9030    0.2475    0.7869 C   0  0  0  0  0  0  0  0  0  0  0  0
    0.7617    0.9399    1.8384 O   0  0  0  0  0  0  0  0  0  0  0  0
   -0.1278    0.3161   -0.2156 C   0  0  0  0  0  0  0  0  0  0  0  0
   -1.3157    1.2533    0.0032 C   0  0  0  0  0  0  0  0  0  0  0  0
   -2.2018    0.2870   -0.4260 O   0  0  0  0  0  0  0  0  0  0  0  0
   -1.2072   -0.6765   -0.3701 C   0  0  0  0  0  0  0  0  0  0  0  0
   -0.1372   -0.5471   -1.3842 C   0  0  0  0  0  0  0  0  0  0  0  0
    2.8179   -0.5754    1.4667 H   0  0  0  0  0  0  0  0  0  0  0  0
   -1.1921    2.1302   -0.6727 H   0  0  0  0  0  0  0  0  0  0  0  0
   -1.4833    1.5194    1.0451 H   0  0  0  0  0  0  0  0  0  0  0  0
   -1.3096   -1.5541    0.2676 H   0  0  0  0  0  0  0  0  0  0  0  0
   -0.4949   -0.1065   -2.3632 H   0  0  0  0  0  0  0  0  0  0  0  0
    0.5323   -1.3748   -1.5487 H   0  0  0  0  0  0  0  0  0  0  0  0
  1  2  2  0
  2  3  1  0
  3  4  2  0
  3  5  1  0
  5  6  1  0
  6  7  1  0
  7  8  1  0
  8  9  1  0
  8  5  1  0
  9  5  1  0
  2 10  1  0
  6 11  1  0
  6 12  1  0
  8 13  1  0
  9 14  1  0
  9 15  1  0
M  END
