
     RDKit          3D

 15 15  0  0  0  0  0  0  0  0999 V2000
    1.9729   -1.6029    0.4941 O   0  0  0  0  0  0  0  0  0  0  0  0
    1.9891   -0.5059   -0.0503 C   0  0  0  0  0  0  0  0  0  0  0  0
    0.8231    0.0039   -0.8430 C   0  0  0  0  0  0  0  0  0  0  0  0
   -0.2137   -0.8943   -0.8680 O   0  0  0  0  0  0  0  0  0  0  0  0
   -1.0007   -0.9117    0.2581 C   0  0  0  0  0  0  0  0  0  0  0  0
   -1.6399    0.4210    0.5791 C   0  0  0  0  0  0  0  0  0  0  0  0
   -0.7672    1.5013    0.3089 O   0  0  0  0  0  0  0  0  0  0  0  0
    0.4144    1.3541   -0.3954 C   0  0  0  0  0  0  0  0  0  0  0  0
    1.0866    2.3838   -0.6214 O   0  0  0  0  0  0  0  0  0  0  0  0
    2.8964    0.0724    0.0760 H   0  0  0  0  0  0  0  0  0  0  0  0
    1.2066    0.0731   -1.9043 H   0  0  0  0  0  0  0  0  0  0  0  0
   -0.4573   -1.2906    1.1606 H   0  0  0  0  0  0  0  0  0  0  0  0
   -1.8278   -1.6303    0.0776 H   0  0  0  0  0  0  0  0  0  0  0  0
   -1.8736    0.4593    1.6708 H   0  0  0  0  0  0  0  0  0  0  0  0
   -2.6088    0.5669    0.0571 H   0  0  0  0  0  0  0  0  0  0  0  0
  1  2  2  0
  2  3  1  0
  3  4  1  0
  4  5  1  0
  5  6  1  0
  6  7  1  0
  7  8  1  0
  8  9  2  0
  8  3  1  0
  2 10  1  0
  3 11  1  0
  5 12  1  0
  5 13  1  0
  6 14  1  0
  6 15  1  0
M  END
