
     RDKit          3D

 21 22  0  0  0  0  0  0  0  0999 V2000
   -3.1723    0.2073    0.6589 O   0  0  0  0  0  0  0  0  0  0  0  0
   -2.6478   -0.3335   -0.2991 C   0  0  0  0  0  0  0  0  0  0  0  0
   -1.7323   -1.4646   -0.0755 C   0  0  0  0  0  0  0  0  0  0  0  0
   -0.3189   -1.0342    0.1639 C   0  0  0  0  0  0  0  0  0  0  0  0
    0.2912   -0.2432   -1.0048 C   0  0  0  0  0  0  0  0  0  0  0  0
    0.9628    0.5747    0.0385 C   0  0  0  0  0  0  0  0  0  0  0  0
    2.3922    0.5358    0.3166 C   0  0  0  0  0  0  0  0  0  0  0  0
    1.6398    1.8183   -0.1064 C   0  0  0  0  0  0  0  0  0  0  0  0
   -0.1216    0.2180    0.9844 C   0  0  0  0  0  0  0  0  0  0  0  0
   -2.9012    0.0705   -1.2779 H   0  0  0  0  0  0  0  0  0  0  0  0
   -1.7805   -2.1771   -0.9290 H   0  0  0  0  0  0  0  0  0  0  0  0
   -2.0788   -1.9868    0.8645 H   0  0  0  0  0  0  0  0  0  0  0  0
    0.3677   -1.8509    0.5026 H   0  0  0  0  0  0  0  0  0  0  0  0
    1.0208   -0.8539   -1.5704 H   0  0  0  0  0  0  0  0  0  0  0  0
   -0.4866    0.2683   -1.6233 H   0  0  0  0  0  0  0  0  0  0  0  0
    3.0102    0.0412   -0.4895 H   0  0  0  0  0  0  0  0  0  0  0  0
    2.7173    0.4526    1.3523 H   0  0  0  0  0  0  0  0  0  0  0  0
    1.5391    2.5872    0.7126 H   0  0  0  0  0  0  0  0  0  0  0  0
    1.9877    2.2409   -1.0470 H   0  0  0  0  0  0  0  0  0  0  0  0
    0.2952    0.0473    2.0084 H   0  0  0  0  0  0  0  0  0  0  0  0
   -0.9840    0.8821    0.9337 H   0  0  0  0  0  0  0  0  0  0  0  0
  1  2  2  0
  2  3  1  0
  3  4  1  0
  4  5  1  0
  5  6  1  0
  6  7  1  0
  7  8  1  0
  6  9  1  0
  9  4  1  0
  8  6  1  0
  2 10  1  0
  3 11  1  0
  3 12  1  0
  4 13  1  0
  5 14  1  0
  5 15  1  0
  7 16  1  0
  7 17  1  0
  8 18  1  0
  8 19  1  0
  9 20  1  0
  9 21  1  0
M  END
