
     RDKit          3D

 17 16  0  0  0  0  0  0  0  0999 V2000
    3.6615    1.7371   -0.0442 O   0  0  0  0  0  0  0  0  0  0  0  0
    3.4331    0.5763   -0.4469 C   0  0  0  0  0  0  0  0  0  0  0  0
    2.1371   -0.0210   -0.1876 C   0  0  0  0  0  0  0  0  0  0  0  0
    1.9149   -1.1878   -0.5953 O   0  0  0  0  0  0  0  0  0  0  0  0
    1.1570    0.6486    0.4847 O   0  0  0  0  0  0  0  0  0  0  0  0
   -0.1298    0.1662    0.7868 C   0  0  0  0  0  0  0  0  0  0  0  0
   -0.8534   -0.1412   -0.4760 C   0  0  0  0  0  0  0  0  0  0  0  0
   -2.2559   -0.6647   -0.2345 C   0  0  0  0  0  0  0  0  0  0  0  0
   -3.0523    0.2282    0.4497 O   0  0  0  0  0  0  0  0  0  0  0  0
    4.2075    0.0501   -0.9769 H   0  0  0  0  0  0  0  0  0  0  0  0
   -0.0904   -0.7627    1.4176 H   0  0  0  0  0  0  0  0  0  0  0  0
   -0.6397    0.9695    1.3687 H   0  0  0  0  0  0  0  0  0  0  0  0
   -0.9447    0.7793   -1.0981 H   0  0  0  0  0  0  0  0  0  0  0  0
   -0.3362   -0.9382   -1.0398 H   0  0  0  0  0  0  0  0  0  0  0  0
   -2.2061   -1.5997    0.3435 H   0  0  0  0  0  0  0  0  0  0  0  0
   -2.6909   -0.8527   -1.2446 H   0  0  0  0  0  0  0  0  0  0  0  0
   -3.3117    1.0127   -0.1002 H   0  0  0  0  0  0  0  0  0  0  0  0
  1  2  2  0
  2  3  1  0
  3  4  2  0
  3  5  1  0
  5  6  1  0
  6  7  1  0
  7  8  1  0
  8  9  1  0
  2 10  1  0
  6 11  1  0
  6 12  1  0
  7 13  1  0
  7 14  1  0
  8 15  1  0
  8 16  1  0
  9 17  1  0
M  END
