
     RDKit          3D

 21 21  0  0  0  0  0  0  0  0999 V2000
    3.1390   -1.5203   -0.0019 O   0  0  0  0  0  0  0  0  0  0  0  0
    3.2276   -0.3075   -0.0845 C   0  0  0  0  0  0  0  0  0  0  0  0
    1.9991    0.4939    0.1544 C   0  0  0  0  0  0  0  0  0  0  0  0
    0.8789   -0.4372    0.4576 C   0  0  0  0  0  0  0  0  0  0  0  0
   -0.4345    0.2410    0.7227 C   0  0  0  0  0  0  0  0  0  0  0  0
   -1.4449   -0.8514    1.0091 C   0  0  0  0  0  0  0  0  0  0  0  0
   -2.6789   -0.4222    0.3138 C   0  0  0  0  0  0  0  0  0  0  0  0
   -2.4458    0.5672   -0.5378 C   0  0  0  0  0  0  0  0  0  0  0  0
   -0.9993    0.9177   -0.5065 C   0  0  0  0  0  0  0  0  0  0  0  0
    4.1754    0.1850   -0.3258 H   0  0  0  0  0  0  0  0  0  0  0  0
    1.8132    1.0867   -0.7758 H   0  0  0  0  0  0  0  0  0  0  0  0
    2.2222    1.1962    0.9933 H   0  0  0  0  0  0  0  0  0  0  0  0
    1.0874   -1.1182    1.3058 H   0  0  0  0  0  0  0  0  0  0  0  0
    0.7388   -1.1080   -0.4293 H   0  0  0  0  0  0  0  0  0  0  0  0
   -0.3632    0.9744    1.5456 H   0  0  0  0  0  0  0  0  0  0  0  0
   -1.0928   -1.8326    0.6041 H   0  0  0  0  0  0  0  0  0  0  0  0
   -1.5812   -0.9453    2.1060 H   0  0  0  0  0  0  0  0  0  0  0  0
   -3.6545   -0.8579    0.4756 H   0  0  0  0  0  0  0  0  0  0  0  0
   -3.1704    1.0477   -1.1560 H   0  0  0  0  0  0  0  0  0  0  0  0
   -0.4713    0.6657   -1.4299 H   0  0  0  0  0  0  0  0  0  0  0  0
   -0.9449    2.0249   -0.3938 H   0  0  0  0  0  0  0  0  0  0  0  0
  1  2  2  0
  2  3  1  0
  3  4  1  0
  4  5  1  0
  5  6  1  0
  6  7  1  0
  7  8  2  0
  8  9  1  0
  9  5  1  0
  2 10  1  0
  3 11  1  0
  3 12  1  0
  4 13  1  0
  4 14  1  0
  5 15  1  0
  6 16  1  0
  6 17  1  0
  7 18  1  0
  8 19  1  0
  9 20  1  0
  9 21  1  0
M  END
