
     RDKit          3D

 15 16  0  0  0  0  0  0  0  0999 V2000
    2.7648   -1.2448    0.0279 O   0  0  0  0  0  0  0  0  0  0  0  0
    2.2900   -0.1551    0.4428 C   0  0  0  0  0  0  0  0  0  0  0  0
    0.9059    0.1738    0.1521 C   0  0  0  0  0  0  0  0  0  0  0  0
    0.2967    1.2835    0.5325 C   0  0  0  0  0  0  0  0  0  0  0  0
   -1.0858    1.3063    0.0811 C   0  0  0  0  0  0  0  0  0  0  0  0
   -1.9224    2.2027    0.3374 O   0  0  0  0  0  0  0  0  0  0  0  0
   -1.2699    0.0799   -0.7164 C   0  0  0  0  0  0  0  0  0  0  0  0
   -1.2423   -1.2146    0.0431 C   0  0  0  0  0  0  0  0  0  0  0  0
   -0.0134   -0.6954   -0.6136 C   0  0  0  0  0  0  0  0  0  0  0  0
    2.8836    0.5565    1.0165 H   0  0  0  0  0  0  0  0  0  0  0  0
    0.7677    2.0886    1.1144 H   0  0  0  0  0  0  0  0  0  0  0  0
   -1.7261    0.1328   -1.7093 H   0  0  0  0  0  0  0  0  0  0  0  0
   -1.7718   -2.0577   -0.4038 H   0  0  0  0  0  0  0  0  0  0  0  0
   -1.2374   -1.1572    1.1534 H   0  0  0  0  0  0  0  0  0  0  0  0
    0.3605   -1.2993   -1.4579 H   0  0  0  0  0  0  0  0  0  0  0  0
  1  2  2  0
  2  3  1  0
  3  4  2  0
  4  5  1  0
  5  6  2  0
  5  7  1  0
  7  8  1  0
  8  9  1  0
  9  3  1  0
  9  7  1  0
  2 10  1  0
  4 11  1  0
  7 12  1  0
  8 13  1  0
  8 14  1  0
  9 15  1  0
M  END
