
     RDKit          3D

 21 21  0  0  0  0  0  0  0  0999 V2000
    3.2294    1.1749    0.9288 O   0  0  0  0  0  0  0  0  0  0  0  0
    3.1437   -0.0437    0.8146 C   0  0  0  0  0  0  0  0  0  0  0  0
    1.8833   -0.6605    0.2950 C   0  0  0  0  0  0  0  0  0  0  0  0
    0.8862    0.4324   -0.0101 C   0  0  0  0  0  0  0  0  0  0  0  0
   -0.3925   -0.1553   -0.5348 C   0  0  0  0  0  0  0  0  0  0  0  0
   -1.1142   -1.1038    0.3690 C   0  0  0  0  0  0  0  0  0  0  0  0
   -2.4139   -0.3427    0.1285 C   0  0  0  0  0  0  0  0  0  0  0  0
   -1.5533    0.7851   -0.4448 C   0  0  0  0  0  0  0  0  0  0  0  0
   -1.3964    1.8413    0.4647 O   0  0  0  0  0  0  0  0  0  0  0  0
    3.9813   -0.6778    1.0900 H   0  0  0  0  0  0  0  0  0  0  0  0
    1.4797   -1.3632    1.0470 H   0  0  0  0  0  0  0  0  0  0  0  0
    2.1440   -1.1966   -0.6311 H   0  0  0  0  0  0  0  0  0  0  0  0
    1.3266    1.0395   -0.8336 H   0  0  0  0  0  0  0  0  0  0  0  0
    0.7661    1.0446    0.8907 H   0  0  0  0  0  0  0  0  0  0  0  0
   -0.2569   -0.5705   -1.5446 H   0  0  0  0  0  0  0  0  0  0  0  0
   -1.2299   -2.1378   -0.0006 H   0  0  0  0  0  0  0  0  0  0  0  0
   -0.8443   -1.0911    1.4327 H   0  0  0  0  0  0  0  0  0  0  0  0
   -3.0498   -0.7673   -0.6732 H   0  0  0  0  0  0  0  0  0  0  0  0
   -2.9473   -0.0270    1.0314 H   0  0  0  0  0  0  0  0  0  0  0  0
   -1.9284    1.1450   -1.4387 H   0  0  0  0  0  0  0  0  0  0  0  0
   -1.7134    2.6745    0.0526 H   0  0  0  0  0  0  0  0  0  0  0  0
  1  2  2  0
  2  3  1  0
  3  4  1  0
  4  5  1  0
  5  6  1  0
  6  7  1  0
  7  8  1  0
  8  9  1  0
  8  5  1  0
  2 10  1  0
  3 11  1  0
  3 12  1  0
  4 13  1  0
  4 14  1  0
  5 15  1  0
  6 16  1  0
  6 17  1  0
  7 18  1  0
  7 19  1  0
  8 20  1  0
  9 21  1  0
M  END
