
     RDKit          3D

 17 18  0  0  0  0  0  0  0  0999 V2000
    2.6093   -0.9564   -0.7214 O   0  0  0  0  0  0  0  0  0  0  0  0
    1.8582   -0.3702    0.0732 C   0  0  0  0  0  0  0  0  0  0  0  0
    0.4513   -0.2428   -0.3143 C   0  0  0  0  0  0  0  0  0  0  0  0
   -0.4218   -1.4639   -0.1637 C   0  0  0  0  0  0  0  0  0  0  0  0
   -1.4854   -0.6087    0.5233 C   0  0  0  0  0  0  0  0  0  0  0  0
   -0.5308    0.5442    0.4458 C   0  0  0  0  0  0  0  0  0  0  0  0
   -0.2285    1.3119    1.5313 O   0  0  0  0  0  0  0  0  0  0  0  0
   -0.1039    0.9852   -0.8984 C   0  0  0  0  0  0  0  0  0  0  0  0
    0.7198    2.0997   -0.9357 O   0  0  0  0  0  0  0  0  0  0  0  0
    2.3161   -0.0119    0.9719 H   0  0  0  0  0  0  0  0  0  0  0  0
   -0.7211   -1.8781   -1.1387 H   0  0  0  0  0  0  0  0  0  0  0  0
    0.0292   -2.2375    0.4944 H   0  0  0  0  0  0  0  0  0  0  0  0
   -2.3344   -0.4623   -0.1934 H   0  0  0  0  0  0  0  0  0  0  0  0
   -1.7723   -0.9479    1.5255 H   0  0  0  0  0  0  0  0  0  0  0  0
   -0.3425    0.8779    2.4028 H   0  0  0  0  0  0  0  0  0  0  0  0
   -0.8537    0.9120   -1.7360 H   0  0  0  0  0  0  0  0  0  0  0  0
    0.8105    2.4488   -1.8664 H   0  0  0  0  0  0  0  0  0  0  0  0
  1  2  2  0
  2  3  1  0
  3  4  1  0
  4  5  1  0
  5  6  1  0
  6  7  1  0
  6  8  1  0
  8  9  1  0
  6  3  1  0
  8  3  1  0
  2 10  1  0
  4 11  1  0
  4 12  1  0
  5 13  1  0
  5 14  1  0
  7 15  1  0
  8 16  1  0
  9 17  1  0
M  END
