
     RDKit          3D

 19 19  0  0  0  0  0  0  0  0999 V2000
    3.1316    0.4872    0.0344 O   0  0  0  0  0  0  0  0  0  0  0  0
    2.4104   -0.4796    0.2882 C   0  0  0  0  0  0  0  0  0  0  0  0
    0.9521   -0.3564    0.4364 C   0  0  0  0  0  0  0  0  0  0  0  0
    0.5457    1.0249    0.8607 C   0  0  0  0  0  0  0  0  0  0  0  0
   -0.6194    1.5265    0.5079 C   0  0  0  0  0  0  0  0  0  0  0  0
   -1.6384    0.8455   -0.3087 C   0  0  0  0  0  0  0  0  0  0  0  0
   -1.2431   -0.5901   -0.5811 C   0  0  0  0  0  0  0  0  0  0  0  0
   -1.4372   -1.3218    0.6099 O   0  0  0  0  0  0  0  0  0  0  0  0
    0.2465   -0.5708   -0.9061 C   0  0  0  0  0  0  0  0  0  0  0  0
    2.8638   -1.4462    0.4051 H   0  0  0  0  0  0  0  0  0  0  0  0
    0.6109   -1.1127    1.1750 H   0  0  0  0  0  0  0  0  0  0  0  0
    1.2207    1.6238    1.4688 H   0  0  0  0  0  0  0  0  0  0  0  0
   -0.8519    2.5468    0.8551 H   0  0  0  0  0  0  0  0  0  0  0  0
   -2.6311    0.8319    0.2197 H   0  0  0  0  0  0  0  0  0  0  0  0
   -1.7692    1.3487   -1.3084 H   0  0  0  0  0  0  0  0  0  0  0  0
   -1.8375   -1.0292   -1.3949 H   0  0  0  0  0  0  0  0  0  0  0  0
   -1.0249   -2.2108    0.5634 H   0  0  0  0  0  0  0  0  0  0  0  0
    0.4846    0.3447   -1.5039 H   0  0  0  0  0  0  0  0  0  0  0  0
    0.5868   -1.4626   -1.4214 H   0  0  0  0  0  0  0  0  0  0  0  0
  1  2  2  0
  2  3  1  0
  3  4  1  0
  4  5  2  0
  5  6  1  0
  6  7  1  0
  7  8  1  0
  7  9  1  0
  9  3  1  0
  2 10  1  0
  3 11  1  0
  4 12  1  0
  5 13  1  0
  6 14  1  0
  6 15  1  0
  7 16  1  0
  8 17  1  0
  9 18  1  0
  9 19  1  0
M  END
