
     RDKit          3D

 14 14  0  0  0  0  0  0  0  0999 V2000
   -2.5169    1.0048   -0.4883 O   0  0  0  0  0  0  0  0  0  0  0  0
   -1.9506    0.3364    0.3882 C   0  0  0  0  0  0  0  0  0  0  0  0
   -1.0423   -0.7904    0.0515 C   0  0  0  0  0  0  0  0  0  0  0  0
    0.3856   -0.4130    0.3557 C   0  0  0  0  0  0  0  0  0  0  0  0
    0.9031    0.8006   -0.3906 C   0  0  0  0  0  0  0  0  0  0  0  0
    2.1332   -0.0017   -0.3984 C   0  0  0  0  0  0  0  0  0  0  0  0
    3.3552    0.1889   -0.3505 O   0  0  0  0  0  0  0  0  0  0  0  0
    1.3304   -1.1205   -0.4879 O   0  0  0  0  0  0  0  0  0  0  0  0
   -2.1244    0.5808    1.4133 H   0  0  0  0  0  0  0  0  0  0  0  0
   -1.3126   -1.6564    0.6859 H   0  0  0  0  0  0  0  0  0  0  0  0
   -1.1855   -1.0168   -1.0206 H   0  0  0  0  0  0  0  0  0  0  0  0
    0.7142   -0.5416    1.3925 H   0  0  0  0  0  0  0  0  0  0  0  0
    0.3707    0.8953   -1.3642 H   0  0  0  0  0  0  0  0  0  0  0  0
    0.9400    1.7337    0.2135 H   0  0  0  0  0  0  0  0  0  0  0  0
  1  2  2  0
  2  3  1  0
  3  4  1  0
  4  5  1  0
  5  6  1  0
  6  7  2  0
  6  8  1  0
  8  4  1  0
  2  9  1  0
  3 10  1  0
  3 11  1  0
  4 12  1  0
  5 13  1  0
  5 14  1  0
M  END
