
     RDKit          3D

 15 16  0  0  0  0  0  0  0  0999 V2000
    3.0143   -0.4153    1.0404 O   0  0  0  0  0  0  0  0  0  0  0  0
    2.0488    0.1252    0.5313 C   0  0  0  0  0  0  0  0  0  0  0  0
    1.1133   -0.6725   -0.2654 C   0  0  0  0  0  0  0  0  0  0  0  0
   -0.2204   -0.2959   -0.1162 C   0  0  0  0  0  0  0  0  0  0  0  0
   -0.8202    1.0195   -0.3924 C   0  0  0  0  0  0  0  0  0  0  0  0
   -1.9339    0.0613   -0.0911 C   0  0  0  0  0  0  0  0  0  0  0  0
   -1.2604   -0.8423   -0.8965 O   0  0  0  0  0  0  0  0  0  0  0  0
   -1.1065   -0.4581    1.0148 C   0  0  0  0  0  0  0  0  0  0  0  0
   -1.1713   -0.8019    2.1673 O   0  0  0  0  0  0  0  0  0  0  0  0
    1.9591    1.1981    0.7151 H   0  0  0  0  0  0  0  0  0  0  0  0
    1.2574   -1.7497   -0.0246 H   0  0  0  0  0  0  0  0  0  0  0  0
    1.4409   -0.5871   -1.3304 H   0  0  0  0  0  0  0  0  0  0  0  0
   -0.6984    1.3360   -1.4337 H   0  0  0  0  0  0  0  0  0  0  0  0
   -0.7020    1.8229    0.3595 H   0  0  0  0  0  0  0  0  0  0  0  0
   -2.9208    0.2599   -0.0598 H   0  0  0  0  0  0  0  0  0  0  0  0
  1  2  2  0
  2  3  1  0
  3  4  1  0
  4  5  1  0
  5  6  1  0
  6  7  1  0
  6  8  1  0
  8  9  2  0
  7  4  1  0
  8  4  1  0
  2 10  1  0
  3 11  1  0
  3 12  1  0
  5 13  1  0
  5 14  1  0
  6 15  1  0
M  END
