
     RDKit          3D

 15 16  0  0  0  0  0  0  0  0999 V2000
   -2.7603   -0.8804    0.6107 O   0  0  0  0  0  0  0  0  0  0  0  0
   -2.4294   -0.0792   -0.2421 C   0  0  0  0  0  0  0  0  0  0  0  0
   -1.1947    0.7381   -0.1239 C   0  0  0  0  0  0  0  0  0  0  0  0
   -0.5838    0.3780    1.0960 O   0  0  0  0  0  0  0  0  0  0  0  0
    0.7290    0.3666    0.7356 C   0  0  0  0  0  0  0  0  0  0  0  0
    1.6266   -0.5967    0.2477 C   0  0  0  0  0  0  0  0  0  0  0  0
    2.8207   -0.1961   -0.3979 O   0  0  0  0  0  0  0  0  0  0  0  0
    0.4468   -0.5746   -0.5073 C   0  0  0  0  0  0  0  0  0  0  0  0
   -0.2706    0.3925   -1.1453 O   0  0  0  0  0  0  0  0  0  0  0  0
   -3.0641    0.0310   -1.1088 H   0  0  0  0  0  0  0  0  0  0  0  0
   -1.3882    1.8222   -0.1660 H   0  0  0  0  0  0  0  0  0  0  0  0
    1.0109    1.4364    0.4740 H   0  0  0  0  0  0  0  0  0  0  0  0
    1.8627   -1.4795    0.9070 H   0  0  0  0  0  0  0  0  0  0  0  0
    3.4592    0.0794    0.3115 H   0  0  0  0  0  0  0  0  0  0  0  0
   -0.2647   -1.4376   -0.3032 H   0  0  0  0  0  0  0  0  0  0  0  0
  1  2  2  0
  2  3  1  0
  3  4  1  0
  4  5  1  0
  5  6  1  0
  6  7  1  0
  6  8  1  0
  8  9  1  0
  9  3  1  0
  8  5  1  0
  2 10  1  0
  3 11  1  0
  5 12  1  0
  6 13  1  0
  7 14  1  0
  8 15  1  0
M  END
