
     RDKit          3D

 17 17  0  0  0  0  0  0  0  0999 V2000
   -2.8162    1.1006    0.5929 O   0  0  0  0  0  0  0  0  0  0  0  0
   -2.0679    0.5676   -0.2073 C   0  0  0  0  0  0  0  0  0  0  0  0
   -1.0738   -0.4464    0.2089 C   0  0  0  0  0  0  0  0  0  0  0  0
   -0.0651    0.0358    1.2288 C   0  0  0  0  0  0  0  0  0  0  0  0
    0.6989    0.6383    0.0535 C   0  0  0  0  0  0  0  0  0  0  0  0
    2.1463    0.5650    0.1145 C   0  0  0  0  0  0  0  0  0  0  0  0
    2.8106    1.5768    0.0566 O   0  0  0  0  0  0  0  0  0  0  0  0
    0.0720   -0.4798   -0.7894 C   0  0  0  0  0  0  0  0  0  0  0  0
    0.8020   -1.6668   -0.7572 O   0  0  0  0  0  0  0  0  0  0  0  0
   -2.1639    0.8712   -1.2425 H   0  0  0  0  0  0  0  0  0  0  0  0
   -1.4649   -1.4645    0.3674 H   0  0  0  0  0  0  0  0  0  0  0  0
   -0.4317    0.7487    1.9686 H   0  0  0  0  0  0  0  0  0  0  0  0
    0.4793   -0.8517    1.6344 H   0  0  0  0  0  0  0  0  0  0  0  0
    0.2461    1.6042   -0.2034 H   0  0  0  0  0  0  0  0  0  0  0  0
    2.6464   -0.3793    0.2111 H   0  0  0  0  0  0  0  0  0  0  0  0
   -0.2016   -0.1541   -1.8126 H   0  0  0  0  0  0  0  0  0  0  0  0
    0.3835   -2.2654   -1.4243 H   0  0  0  0  0  0  0  0  0  0  0  0
  1  2  2  0
  2  3  1  0
  3  4  1  0
  4  5  1  0
  5  6  1  0
  6  7  2  0
  5  8  1  0
  8  9  1  0
  8  3  1  0
  2 10  1  0
  3 11  1  0
  4 12  1  0
  4 13  1  0
  5 14  1  0
  6 15  1  0
  8 16  1  0
  9 17  1  0
M  END
