
     RDKit          3D

 15 15  0  0  0  0  0  0  0  0999 V2000
    3.7730    0.3319    0.0109 O   0  0  0  0  0  0  0  0  0  0  0  0
    2.5886    0.2839    0.2376 C   0  0  0  0  0  0  0  0  0  0  0  0
    1.5704    0.7639   -0.7605 C   0  0  0  0  0  0  0  0  0  0  0  0
    0.2620    0.6014   -0.2595 O   0  0  0  0  0  0  0  0  0  0  0  0
   -0.2338   -0.6335    0.0868 C   0  0  0  0  0  0  0  0  0  0  0  0
    0.4891   -1.6405   -0.0436 O   0  0  0  0  0  0  0  0  0  0  0  0
   -1.5987   -0.8183    0.6115 C   0  0  0  0  0  0  0  0  0  0  0  0
   -2.6434    0.1576    0.0657 C   0  0  0  0  0  0  0  0  0  0  0  0
   -2.1861    0.1823    1.3708 O   0  0  0  0  0  0  0  0  0  0  0  0
    2.2389   -0.1127    1.1800 H   0  0  0  0  0  0  0  0  0  0  0  0
    1.7796    1.8413   -0.9166 H   0  0  0  0  0  0  0  0  0  0  0  0
    1.7399    0.1880   -1.6935 H   0  0  0  0  0  0  0  0  0  0  0  0
   -1.9355   -1.8261    0.8694 H   0  0  0  0  0  0  0  0  0  0  0  0
   -2.2555    0.9928   -0.5564 H   0  0  0  0  0  0  0  0  0  0  0  0
   -3.5885   -0.3118   -0.2027 H   0  0  0  0  0  0  0  0  0  0  0  0
  1  2  2  0
  2  3  1  0
  3  4  1  0
  4  5  1  0
  5  6  2  0
  5  7  1  0
  7  8  1  0
  8  9  1  0
  9  7  1  0
  2 10  1  0
  3 11  1  0
  3 12  1  0
  7 13  1  0
  8 14  1  0
  8 15  1  0
M  END
