
     RDKit          3D

 19 20  0  0  0  0  0  0  0  0999 V2000
    2.3403   -1.4243    0.0953 O   0  0  0  0  0  0  0  0  0  0  0  0
    2.5829   -0.2412    0.2768 C   0  0  0  0  0  0  0  0  0  0  0  0
    1.5150    0.7965    0.2275 C   0  0  0  0  0  0  0  0  0  0  0  0
    0.2232    0.1500    0.0233 C   0  0  0  0  0  0  0  0  0  0  0  0
   -0.9695    1.0352   -0.3310 C   0  0  0  0  0  0  0  0  0  0  0  0
   -1.7194   -0.1711    0.2270 C   0  0  0  0  0  0  0  0  0  0  0  0
   -1.2778   -1.2137   -0.7412 C   0  0  0  0  0  0  0  0  0  0  0  0
    0.1133   -0.9908   -0.7326 O   0  0  0  0  0  0  0  0  0  0  0  0
   -0.6111   -0.2122    1.2513 C   0  0  0  0  0  0  0  0  0  0  0  0
    3.5951    0.1242    0.4625 H   0  0  0  0  0  0  0  0  0  0  0  0
    1.7534    1.5598   -0.5524 H   0  0  0  0  0  0  0  0  0  0  0  0
    1.4830    1.3592    1.1941 H   0  0  0  0  0  0  0  0  0  0  0  0
   -1.1297    1.1819   -1.4065 H   0  0  0  0  0  0  0  0  0  0  0  0
   -1.0196    1.9156    0.3202 H   0  0  0  0  0  0  0  0  0  0  0  0
   -2.7282   -0.0550    0.5261 H   0  0  0  0  0  0  0  0  0  0  0  0
   -1.5973   -0.9782   -1.7835 H   0  0  0  0  0  0  0  0  0  0  0  0
   -1.5398   -2.2294   -0.4198 H   0  0  0  0  0  0  0  0  0  0  0  0
   -0.6183    0.6129    1.9895 H   0  0  0  0  0  0  0  0  0  0  0  0
   -0.3954   -1.2194    1.6472 H   0  0  0  0  0  0  0  0  0  0  0  0
  1  2  2  0
  2  3  1  0
  3  4  1  0
  4  5  1  0
  5  6  1  0
  6  7  1  0
  7  8  1  0
  6  9  1  0
  8  4  1  0
  9  4  1  0
  2 10  1  0
  3 11  1  0
  3 12  1  0
  5 13  1  0
  5 14  1  0
  6 15  1  0
  7 16  1  0
  7 17  1  0
  9 18  1  0
  9 19  1  0
M  END
