
     RDKit          3D

 15 16  0  0  0  0  0  0  0  0999 V2000
    2.8736   -0.7729    0.4072 O   0  0  0  0  0  0  0  0  0  0  0  0
    2.2579    0.1581   -0.1755 C   0  0  0  0  0  0  0  0  0  0  0  0
    0.8154    0.3229   -0.0368 C   0  0  0  0  0  0  0  0  0  0  0  0
    0.0131    1.2321   -0.5693 C   0  0  0  0  0  0  0  0  0  0  0  0
   -1.3535    0.9259   -0.0193 C   0  0  0  0  0  0  0  0  0  0  0  0
   -1.8146   -0.2135   -0.6341 O   0  0  0  0  0  0  0  0  0  0  0  0
   -1.0539   -1.2837   -0.1188 C   0  0  0  0  0  0  0  0  0  0  0  0
   -0.0797   -0.5416    0.7701 C   0  0  0  0  0  0  0  0  0  0  0  0
   -0.9708    0.4501    1.2618 O   0  0  0  0  0  0  0  0  0  0  0  0
    2.8680    0.8180   -0.7782 H   0  0  0  0  0  0  0  0  0  0  0  0
    0.3086    2.0078   -1.2457 H   0  0  0  0  0  0  0  0  0  0  0  0
   -2.0164    1.7638    0.0117 H   0  0  0  0  0  0  0  0  0  0  0  0
   -1.6879   -1.9013    0.5238 H   0  0  0  0  0  0  0  0  0  0  0  0
   -0.5493   -1.8446   -0.9329 H   0  0  0  0  0  0  0  0  0  0  0  0
    0.3896   -1.1210    1.5360 H   0  0  0  0  0  0  0  0  0  0  0  0
  1  2  2  0
  2  3  1  0
  3  4  2  0
  4  5  1  0
  5  6  1  0
  6  7  1  0
  7  8  1  0
  8  9  1  0
  8  3  1  0
  9  5  1  0
  2 10  1  0
  4 11  1  0
  5 12  1  0
  7 13  1  0
  7 14  1  0
  8 15  1  0
M  END
