
     RDKit          3D

 15 15  0  0  0  0  0  0  0  0999 V2000
    2.5635   -0.6962   -0.6754 O   0  0  0  0  0  0  0  0  0  0  0  0
    2.3481    0.1522    0.3004 C   0  0  0  0  0  0  0  0  0  0  0  0
    0.9682    0.5138    0.5157 C   0  0  0  0  0  0  0  0  0  0  0  0
    0.6784    1.0366    1.6481 O   0  0  0  0  0  0  0  0  0  0  0  0
   -0.1398    0.3614   -0.3977 C   0  0  0  0  0  0  0  0  0  0  0  0
    0.1301    0.9179   -1.6514 O   0  0  0  0  0  0  0  0  0  0  0  0
   -0.7898   -1.0108   -0.5948 C   0  0  0  0  0  0  0  0  0  0  0  0
   -1.4996    0.0656    0.1687 C   0  0  0  0  0  0  0  0  0  0  0  0
   -1.6154   -0.1428    1.5711 O   0  0  0  0  0  0  0  0  0  0  0  0
    3.1899    0.5247    0.8833 H   0  0  0  0  0  0  0  0  0  0  0  0
   -0.0524    1.9194   -1.4813 H   0  0  0  0  0  0  0  0  0  0  0  0
   -0.3643   -1.9161   -0.1582 H   0  0  0  0  0  0  0  0  0  0  0  0
   -1.2102   -1.1673   -1.6340 H   0  0  0  0  0  0  0  0  0  0  0  0
   -2.4279    0.5391   -0.2644 H   0  0  0  0  0  0  0  0  0  0  0  0
   -1.7789   -1.0975    1.7700 H   0  0  0  0  0  0  0  0  0  0  0  0
  1  2  2  0
  2  3  1  0
  3  4  2  0
  3  5  1  0
  5  6  1  0
  5  7  1  0
  7  8  1  0
  8  9  1  0
  8  5  1  0
  2 10  1  0
  6 11  1  0
  7 12  1  0
  7 13  1  0
  8 14  1  0
  9 15  1  0
M  END
