
     RDKit          3D

 17 19  0  0  0  0  0  0  0  0999 V2000
    2.9559   -0.1714    0.4828 O   0  0  0  0  0  0  0  0  0  0  0  0
    2.0805    0.1115   -0.3106 C   0  0  0  0  0  0  0  0  0  0  0  0
    0.7065   -0.0927    0.0076 C   0  0  0  0  0  0  0  0  0  0  0  0
   -0.4360    0.5552   -0.7264 C   0  0  0  0  0  0  0  0  0  0  0  0
   -1.0714    1.3160    0.4303 C   0  0  0  0  0  0  0  0  0  0  0  0
   -0.9879    0.4575    1.5075 O   0  0  0  0  0  0  0  0  0  0  0  0
    0.1318   -0.3526    1.3316 C   0  0  0  0  0  0  0  0  0  0  0  0
   -0.0410   -1.3095    0.1476 C   0  0  0  0  0  0  0  0  0  0  0  0
   -1.0295   -0.8377   -0.8833 C   0  0  0  0  0  0  0  0  0  0  0  0
    2.3833    0.5229   -1.2644 H   0  0  0  0  0  0  0  0  0  0  0  0
   -0.2256    1.1086   -1.6249 H   0  0  0  0  0  0  0  0  0  0  0  0
   -0.3863    2.1746    0.6410 H   0  0  0  0  0  0  0  0  0  0  0  0
   -2.0936    1.6343    0.2141 H   0  0  0  0  0  0  0  0  0  0  0  0
    0.7092   -0.6851    2.1977 H   0  0  0  0  0  0  0  0  0  0  0  0
    0.3075   -2.3243    0.2065 H   0  0  0  0  0  0  0  0  0  0  0  0
   -0.9324   -1.2883   -1.8723 H   0  0  0  0  0  0  0  0  0  0  0  0
   -2.0712   -0.8192   -0.4847 H   0  0  0  0  0  0  0  0  0  0  0  0
  1  2  2  0
  2  3  1  0
  3  4  1  0
  4  5  1  0
  5  6  1  0
  6  7  1  0
  7  8  1  0
  8  9  1  0
  7  3  1  0
  8  3  1  0
  9  4  1  0
  2 10  1  0
  4 11  1  0
  5 12  1  0
  5 13  1  0
  7 14  1  0
  8 15  1  0
  9 16  1  0
  9 17  1  0
M  END
