
     RDKit          3D

 19 19  0  0  0  0  0  0  0  0999 V2000
   -1.2125    2.5622   -0.1359 O   0  0  0  0  0  0  0  0  0  0  0  0
   -1.0615    1.4703    0.3634 C   0  0  0  0  0  0  0  0  0  0  0  0
   -1.2144    0.2714   -0.4346 C   0  0  0  0  0  0  0  0  0  0  0  0
   -2.0675   -0.7279    0.3839 C   0  0  0  0  0  0  0  0  0  0  0  0
   -0.8266   -1.0334    1.0082 O   0  0  0  0  0  0  0  0  0  0  0  0
   -0.3151   -0.8863   -0.2796 C   0  0  0  0  0  0  0  0  0  0  0  0
    1.1204   -0.8228   -0.4907 C   0  0  0  0  0  0  0  0  0  0  0  0
    1.9655    0.0730    0.3133 C   0  0  0  0  0  0  0  0  0  0  0  0
    1.6459    1.4187    0.1854 O   0  0  0  0  0  0  0  0  0  0  0  0
   -0.8135    1.4298    1.4064 H   0  0  0  0  0  0  0  0  0  0  0  0
   -1.5697    0.3804   -1.4733 H   0  0  0  0  0  0  0  0  0  0  0  0
   -2.8008   -0.2560    1.0307 H   0  0  0  0  0  0  0  0  0  0  0  0
   -2.4201   -1.5025   -0.3119 H   0  0  0  0  0  0  0  0  0  0  0  0
   -0.7524   -1.7496   -0.8835 H   0  0  0  0  0  0  0  0  0  0  0  0
    1.5241   -1.8765   -0.4647 H   0  0  0  0  0  0  0  0  0  0  0  0
    1.2931   -0.5369   -1.5760 H   0  0  0  0  0  0  0  0  0  0  0  0
    2.0558   -0.1955    1.3834 H   0  0  0  0  0  0  0  0  0  0  0  0
    3.0219   -0.0128   -0.0815 H   0  0  0  0  0  0  0  0  0  0  0  0
    2.4275    1.9942    0.0572 H   0  0  0  0  0  0  0  0  0  0  0  0
  1  2  2  0
  2  3  1  0
  3  4  1  0
  4  5  1  0
  5  6  1  0
  6  7  1  0
  7  8  1  0
  8  9  1  0
  6  3  1  0
  2 10  1  0
  3 11  1  0
  4 12  1  0
  4 13  1  0
  6 14  1  0
  7 15  1  0
  7 16  1  0
  8 17  1  0
  8 18  1  0
  9 19  1  0
M  END
