
     RDKit          3D

 19 20  0  0  0  0  0  0  0  0999 V2000
    3.4104    1.0522   -0.6358 O   0  0  0  0  0  0  0  0  0  0  0  0
    2.6645    0.7620    0.2977 C   0  0  0  0  0  0  0  0  0  0  0  0
    1.7344   -0.3805    0.2381 C   0  0  0  0  0  0  0  0  0  0  0  0
    0.4744   -0.0708   -0.5039 C   0  0  0  0  0  0  0  0  0  0  0  0
   -0.5069   -1.2661   -0.5690 C   0  0  0  0  0  0  0  0  0  0  0  0
   -1.4597   -0.0929   -0.8341 C   0  0  0  0  0  0  0  0  0  0  0  0
   -1.9498    0.8583    0.0886 C   0  0  0  0  0  0  0  0  0  0  0  0
   -3.0748    0.4876    0.8651 O   0  0  0  0  0  0  0  0  0  0  0  0
   -0.6358    0.4224    0.4253 C   0  0  0  0  0  0  0  0  0  0  0  0
    2.6761    1.3569    1.2077 H   0  0  0  0  0  0  0  0  0  0  0  0
    2.2620   -1.2006   -0.3280 H   0  0  0  0  0  0  0  0  0  0  0  0
    1.4911   -0.8083    1.2260 H   0  0  0  0  0  0  0  0  0  0  0  0
    0.5269    0.4895   -1.4308 H   0  0  0  0  0  0  0  0  0  0  0  0
   -0.6336   -1.7370    0.4128 H   0  0  0  0  0  0  0  0  0  0  0  0
   -0.3843   -1.9081   -1.4352 H   0  0  0  0  0  0  0  0  0  0  0  0
   -1.1099    0.3579   -1.8198 H   0  0  0  0  0  0  0  0  0  0  0  0
   -2.0557    1.9498   -0.1957 H   0  0  0  0  0  0  0  0  0  0  0  0
   -2.7965    0.0410    1.6957 H   0  0  0  0  0  0  0  0  0  0  0  0
   -0.6329   -0.3133    1.2953 H   0  0  0  0  0  0  0  0  0  0  0  0
  1  2  2  0
  2  3  1  0
  3  4  1  0
  4  5  1  0
  5  6  1  0
  6  7  1  0
  7  8  1  0
  7  9  1  0
  9  4  1  0
  9  6  1  0
  2 10  1  0
  3 11  1  0
  3 12  1  0
  4 13  1  0
  5 14  1  0
  5 15  1  0
  6 16  1  0
  7 17  1  0
  8 18  1  0
  9 19  1  0
M  END
