
     RDKit          3D

 19 20  0  0  0  0  0  0  0  0999 V2000
   -2.8672   -0.6369    0.6341 O   0  0  0  0  0  0  0  0  0  0  0  0
   -2.2005   -0.0476   -0.1925 C   0  0  0  0  0  0  0  0  0  0  0  0
   -0.7538    0.0205   -0.0673 C   0  0  0  0  0  0  0  0  0  0  0  0
   -0.1873    1.3637    0.2784 C   0  0  0  0  0  0  0  0  0  0  0  0
    1.2962    1.3198    0.2860 C   0  0  0  0  0  0  0  0  0  0  0  0
    1.8665    0.1185    0.2855 C   0  0  0  0  0  0  0  0  0  0  0  0
    1.0317   -1.0262   -0.1623 C   0  0  0  0  0  0  0  0  0  0  0  0
    0.0515   -0.5328   -1.2333 C   0  0  0  0  0  0  0  0  0  0  0  0
   -0.1609   -1.1013    0.7658 C   0  0  0  0  0  0  0  0  0  0  0  0
   -2.7042    0.4240   -1.0209 H   0  0  0  0  0  0  0  0  0  0  0  0
   -0.4791    2.0639   -0.5404 H   0  0  0  0  0  0  0  0  0  0  0  0
   -0.6071    1.7946    1.2084 H   0  0  0  0  0  0  0  0  0  0  0  0
    1.8825    2.2336    0.2915 H   0  0  0  0  0  0  0  0  0  0  0  0
    2.8869   -0.0191    0.5956 H   0  0  0  0  0  0  0  0  0  0  0  0
    1.5417   -1.9553   -0.3883 H   0  0  0  0  0  0  0  0  0  0  0  0
    0.5440    0.2566   -1.8611 H   0  0  0  0  0  0  0  0  0  0  0  0
   -0.4275   -1.3487   -1.7862 H   0  0  0  0  0  0  0  0  0  0  0  0
    0.0198   -0.8884    1.8111 H   0  0  0  0  0  0  0  0  0  0  0  0
   -0.7331   -2.0390    0.5326 H   0  0  0  0  0  0  0  0  0  0  0  0
  1  2  2  0
  2  3  1  0
  3  4  1  0
  4  5  1  0
  5  6  2  0
  6  7  1  0
  7  8  1  0
  7  9  1  0
  8  3  1  0
  9  3  1  0
  2 10  1  0
  4 11  1  0
  4 12  1  0
  5 13  1  0
  6 14  1  0
  7 15  1  0
  8 16  1  0
  8 17  1  0
  9 18  1  0
  9 19  1  0
M  END
