
     RDKit          3D

 19 19  0  0  0  0  0  0  0  0999 V2000
    3.4393   -0.3875   -0.5132 O   0  0  0  0  0  0  0  0  0  0  0  0
    2.6674    0.4666   -0.1712 C   0  0  0  0  0  0  0  0  0  0  0  0
    1.2265    0.1750   -0.0981 C   0  0  0  0  0  0  0  0  0  0  0  0
    1.0066   -1.1294   -0.4647 O   0  0  0  0  0  0  0  0  0  0  0  0
   -0.1736   -1.6589    0.0389 C   0  0  0  0  0  0  0  0  0  0  0  0
   -1.3838   -0.8465   -0.3634 C   0  0  0  0  0  0  0  0  0  0  0  0
   -1.4347    0.4057    0.4485 C   0  0  0  0  0  0  0  0  0  0  0  0
   -0.6279    1.5260   -0.1621 C   0  0  0  0  0  0  0  0  0  0  0  0
    0.4758    1.0779   -0.8666 O   0  0  0  0  0  0  0  0  0  0  0  0
    3.0389    1.4372    0.0784 H   0  0  0  0  0  0  0  0  0  0  0  0
    0.9271    0.3686    0.9711 H   0  0  0  0  0  0  0  0  0  0  0  0
   -0.2332   -2.7065   -0.3285 H   0  0  0  0  0  0  0  0  0  0  0  0
   -0.1769   -1.6894    1.1528 H   0  0  0  0  0  0  0  0  0  0  0  0
   -2.2760   -1.4707   -0.1117 H   0  0  0  0  0  0  0  0  0  0  0  0
   -1.3573   -0.6844   -1.4492 H   0  0  0  0  0  0  0  0  0  0  0  0
   -2.5062    0.7027    0.5458 H   0  0  0  0  0  0  0  0  0  0  0  0
   -1.0479    0.1743    1.4682 H   0  0  0  0  0  0  0  0  0  0  0  0
   -1.3003    2.0691   -0.8507 H   0  0  0  0  0  0  0  0  0  0  0  0
   -0.2639    2.1703    0.6758 H   0  0  0  0  0  0  0  0  0  0  0  0
  1  2  2  0
  2  3  1  0
  3  4  1  0
  4  5  1  0
  5  6  1  0
  6  7  1  0
  7  8  1  0
  8  9  1  0
  9  3  1  0
  2 10  1  0
  3 11  1  0
  5 12  1  0
  5 13  1  0
  6 14  1  0
  6 15  1  0
  7 16  1  0
  7 17  1  0
  8 18  1  0
  8 19  1  0
M  END
