
     RDKit          3D

 15 15  0  0  0  0  0  0  0  0999 V2000
    1.6527    0.3681    1.6826 O   0  0  0  0  0  0  0  0  0  0  0  0
    1.7150    0.1128    0.4908 C   0  0  0  0  0  0  0  0  0  0  0  0
    0.5627    0.1284   -0.4241 C   0  0  0  0  0  0  0  0  0  0  0  0
    1.0055   -0.2108   -1.6986 O   0  0  0  0  0  0  0  0  0  0  0  0
   -0.5200   -0.8585    0.0280 C   0  0  0  0  0  0  0  0  0  0  0  0
   -1.5463   -0.0417    0.7256 C   0  0  0  0  0  0  0  0  0  0  0  0
   -1.3439    1.2751    0.2882 O   0  0  0  0  0  0  0  0  0  0  0  0
   -0.1718    1.4112   -0.4155 C   0  0  0  0  0  0  0  0  0  0  0  0
    0.1782    2.5053   -0.9584 O   0  0  0  0  0  0  0  0  0  0  0  0
    2.6917   -0.1385    0.1046 H   0  0  0  0  0  0  0  0  0  0  0  0
    0.8815   -1.1879   -1.8153 H   0  0  0  0  0  0  0  0  0  0  0  0
   -0.9877   -1.3147   -0.8905 H   0  0  0  0  0  0  0  0  0  0  0  0
   -0.0294   -1.6184    0.6514 H   0  0  0  0  0  0  0  0  0  0  0  0
   -1.5057   -0.0856    1.8283 H   0  0  0  0  0  0  0  0  0  0  0  0
   -2.5826   -0.3447    0.4030 H   0  0  0  0  0  0  0  0  0  0  0  0
  1  2  2  0
  2  3  1  0
  3  4  1  0
  3  5  1  0
  5  6  1  0
  6  7  1  0
  7  8  1  0
  8  9  2  0
  8  3  1  0
  2 10  1  0
  4 11  1  0
  5 12  1  0
  5 13  1  0
  6 14  1  0
  6 15  1  0
M  END
