
     RDKit          3D

 17 16  0  0  0  0  0  0  0  0999 V2000
   -0.7696   -1.5397    1.5389 O   0  0  0  0  0  0  0  0  0  0  0  0
   -1.2124   -1.7431    0.3873 C   0  0  0  0  0  0  0  0  0  0  0  0
   -0.7703   -0.9318   -0.7065 C   0  0  0  0  0  0  0  0  0  0  0  0
   -1.2727   -1.1866   -1.8560 O   0  0  0  0  0  0  0  0  0  0  0  0
    0.2024    0.1597   -0.6301 C   0  0  0  0  0  0  0  0  0  0  0  0
    1.5735   -0.2229   -0.1898 C   0  0  0  0  0  0  0  0  0  0  0  0
    1.6702   -0.7841    1.0526 O   0  0  0  0  0  0  0  0  0  0  0  0
   -0.3952    1.2465    0.2452 C   0  0  0  0  0  0  0  0  0  0  0  0
   -1.5776    1.6497   -0.3746 O   0  0  0  0  0  0  0  0  0  0  0  0
   -1.9242   -2.5354    0.2519 H   0  0  0  0  0  0  0  0  0  0  0  0
    0.3075    0.6293   -1.6380 H   0  0  0  0  0  0  0  0  0  0  0  0
    2.0147   -0.8989   -0.9542 H   0  0  0  0  0  0  0  0  0  0  0  0
    2.1837    0.7165   -0.1807 H   0  0  0  0  0  0  0  0  0  0  0  0
    2.0058   -0.1712    1.7492 H   0  0  0  0  0  0  0  0  0  0  0  0
   -0.6612    0.8888    1.2503 H   0  0  0  0  0  0  0  0  0  0  0  0
    0.2768    2.1093    0.3535 H   0  0  0  0  0  0  0  0  0  0  0  0
   -1.6514    2.6139   -0.2991 H   0  0  0  0  0  0  0  0  0  0  0  0
  1  2  2  0
  2  3  1  0
  3  4  2  0
  3  5  1  0
  5  6  1  0
  6  7  1  0
  5  8  1  0
  8  9  1  0
  2 10  1  0
  5 11  1  0
  6 12  1  0
  6 13  1  0
  7 14  1  0
  8 15  1  0
  8 16  1  0
  9 17  1  0
M  END
