
     RDKit          3D

 15 16  0  0  0  0  0  0  0  0999 V2000
    3.1928   -0.0189    0.3799 O   0  0  0  0  0  0  0  0  0  0  0  0
    2.1451    0.4653    0.0329 C   0  0  0  0  0  0  0  0  0  0  0  0
    0.8957   -0.2451    0.3542 C   0  0  0  0  0  0  0  0  0  0  0  0
   -0.3293    0.5631    0.5723 C   0  0  0  0  0  0  0  0  0  0  0  0
   -1.6426   -0.0829    0.6869 C   0  0  0  0  0  0  0  0  0  0  0  0
   -2.6140    0.0954    1.4001 O   0  0  0  0  0  0  0  0  0  0  0  0
   -1.3701   -1.0674   -0.4081 C   0  0  0  0  0  0  0  0  0  0  0  0
   -0.1222   -0.2675   -0.7208 C   0  0  0  0  0  0  0  0  0  0  0  0
   -0.0292    0.4721   -1.8636 O   0  0  0  0  0  0  0  0  0  0  0  0
    2.1214    1.3899   -0.4964 H   0  0  0  0  0  0  0  0  0  0  0  0
    0.9807   -1.2183    0.9155 H   0  0  0  0  0  0  0  0  0  0  0  0
   -0.2399    1.6637    0.4721 H   0  0  0  0  0  0  0  0  0  0  0  0
   -1.0531   -2.0771   -0.0344 H   0  0  0  0  0  0  0  0  0  0  0  0
   -2.1218   -1.0939   -1.2128 H   0  0  0  0  0  0  0  0  0  0  0  0
    0.1864    1.4217   -1.6536 H   0  0  0  0  0  0  0  0  0  0  0  0
  1  2  2  0
  2  3  1  0
  3  4  1  0
  4  5  1  0
  5  6  2  0
  5  7  1  0
  7  8  1  0
  8  9  1  0
  8  3  1  0
  8  4  1  0
  2 10  1  0
  3 11  1  0
  4 12  1  0
  7 13  1  0
  7 14  1  0
  9 15  1  0
M  END
