
     RDKit          3D

 19 20  0  0  0  0  0  0  0  0999 V2000
   -0.1755   -1.6131    1.5992 O   0  0  0  0  0  0  0  0  0  0  0  0
   -1.0030   -1.0065    0.9672 C   0  0  0  0  0  0  0  0  0  0  0  0
   -0.7784   -0.3990   -0.3807 C   0  0  0  0  0  0  0  0  0  0  0  0
    0.3584   -1.0538   -1.0699 C   0  0  0  0  0  0  0  0  0  0  0  0
    1.5651   -0.7295   -0.2055 C   0  0  0  0  0  0  0  0  0  0  0  0
    1.5641    0.2938    0.6377 C   0  0  0  0  0  0  0  0  0  0  0  0
    0.4099    1.2223    0.8320 C   0  0  0  0  0  0  0  0  0  0  0  0
   -0.3471    1.1076   -0.4358 C   0  0  0  0  0  0  0  0  0  0  0  0
   -1.6415    0.6519   -0.7701 C   0  0  0  0  0  0  0  0  0  0  0  0
   -1.9831   -0.8957    1.4139 H   0  0  0  0  0  0  0  0  0  0  0  0
    0.2561   -2.1480   -1.0262 H   0  0  0  0  0  0  0  0  0  0  0  0
    0.4975   -0.6350   -2.0652 H   0  0  0  0  0  0  0  0  0  0  0  0
    2.4255   -1.3745   -0.3117 H   0  0  0  0  0  0  0  0  0  0  0  0
    2.4542    0.4599    1.2153 H   0  0  0  0  0  0  0  0  0  0  0  0
    0.7253    2.2366    1.0977 H   0  0  0  0  0  0  0  0  0  0  0  0
   -0.1590    0.8103    1.7118 H   0  0  0  0  0  0  0  0  0  0  0  0
    0.3121    1.4168   -1.3006 H   0  0  0  0  0  0  0  0  0  0  0  0
   -1.9896    0.7361   -1.8247 H   0  0  0  0  0  0  0  0  0  0  0  0
   -2.4912    0.9200   -0.0843 H   0  0  0  0  0  0  0  0  0  0  0  0
  1  2  2  0
  2  3  1  0
  3  4  1  0
  4  5  1  0
  5  6  2  0
  6  7  1  0
  7  8  1  0
  8  9  1  0
  8  3  1  0
  9  3  1  0
  2 10  1  0
  4 11  1  0
  4 12  1  0
  5 13  1  0
  6 14  1  0
  7 15  1  0
  7 16  1  0
  8 17  1  0
  9 18  1  0
  9 19  1  0
M  END
