
     RDKit          3D

 15 15  0  0  0  0  0  0  0  0999 V2000
    1.8254    0.1580    1.4992 O   0  0  0  0  0  0  0  0  0  0  0  0
    2.2383   -0.1436    0.3538 C   0  0  0  0  0  0  0  0  0  0  0  0
    1.3577   -0.2630   -0.7768 C   0  0  0  0  0  0  0  0  0  0  0  0
    1.8375   -0.5656   -1.8983 O   0  0  0  0  0  0  0  0  0  0  0  0
   -0.1041   -0.0507   -0.7156 C   0  0  0  0  0  0  0  0  0  0  0  0
   -0.7397    0.7367    0.3527 C   0  0  0  0  0  0  0  0  0  0  0  0
   -1.9507    1.3600    0.0366 O   0  0  0  0  0  0  0  0  0  0  0  0
   -0.7475   -0.7199    0.5214 C   0  0  0  0  0  0  0  0  0  0  0  0
   -1.8670   -1.4903    0.2289 O   0  0  0  0  0  0  0  0  0  0  0  0
    3.2990   -0.3103    0.2608 H   0  0  0  0  0  0  0  0  0  0  0  0
   -0.6657   -0.1647   -1.6679 H   0  0  0  0  0  0  0  0  0  0  0  0
   -0.1296    1.3607    1.0584 H   0  0  0  0  0  0  0  0  0  0  0  0
   -1.8587    2.3324   -0.0724 H   0  0  0  0  0  0  0  0  0  0  0  0
   -0.0834   -1.1588    1.2830 H   0  0  0  0  0  0  0  0  0  0  0  0
   -2.4115   -1.0809   -0.4638 H   0  0  0  0  0  0  0  0  0  0  0  0
  1  2  2  0
  2  3  1  0
  3  4  2  0
  3  5  1  0
  5  6  1  0
  6  7  1  0
  6  8  1  0
  8  9  1  0
  8  5  1  0
  2 10  1  0
  5 11  1  0
  6 12  1  0
  7 13  1  0
  8 14  1  0
  9 15  1  0
M  END
