
     RDKit          3D

 15 15  0  0  0  0  0  0  0  0999 V2000
    3.1764    0.0479    0.8280 O   0  0  0  0  0  0  0  0  0  0  0  0
    2.2202    0.7714    0.4672 C   0  0  0  0  0  0  0  0  0  0  0  0
    0.9652    0.1796    0.0644 C   0  0  0  0  0  0  0  0  0  0  0  0
   -0.1005    0.8511   -0.3315 C   0  0  0  0  0  0  0  0  0  0  0  0
   -1.1497   -0.1567   -0.6448 C   0  0  0  0  0  0  0  0  0  0  0  0
   -2.3247    0.1618    0.2104 C   0  0  0  0  0  0  0  0  0  0  0  0
   -2.8495    1.2493    0.0685 O   0  0  0  0  0  0  0  0  0  0  0  0
   -0.6301   -1.4009   -0.4115 O   0  0  0  0  0  0  0  0  0  0  0  0
    0.6719   -1.2716    0.0304 C   0  0  0  0  0  0  0  0  0  0  0  0
    2.3695    1.8375    0.4695 H   0  0  0  0  0  0  0  0  0  0  0  0
   -0.2680    1.9031   -0.4372 H   0  0  0  0  0  0  0  0  0  0  0  0
   -1.4627   -0.1041   -1.7074 H   0  0  0  0  0  0  0  0  0  0  0  0
   -2.7365   -0.5070    0.9427 H   0  0  0  0  0  0  0  0  0  0  0  0
    0.7193   -1.7272    1.0443 H   0  0  0  0  0  0  0  0  0  0  0  0
    1.3993   -1.8343   -0.5928 H   0  0  0  0  0  0  0  0  0  0  0  0
  1  2  2  0
  2  3  1  0
  3  4  2  0
  4  5  1  0
  5  6  1  0
  6  7  2  0
  5  8  1  0
  8  9  1  0
  9  3  1  0
  2 10  1  0
  4 11  1  0
  5 12  1  0
  6 13  1  0
  9 14  1  0
  9 15  1  0
M  END
