
     RDKit          3D

 13 13  0  0  0  0  0  0  0  0999 V2000
    1.3453   -0.9340    1.5125 O   0  0  0  0  0  0  0  0  0  0  0  0
    1.9208   -0.4025    0.5951 C   0  0  0  0  0  0  0  0  0  0  0  0
    1.2116    0.4596   -0.3702 C   0  0  0  0  0  0  0  0  0  0  0  0
    0.3053    1.4091    0.0889 O   0  0  0  0  0  0  0  0  0  0  0  0
   -0.1532    0.2648   -0.7711 C   0  0  0  0  0  0  0  0  0  0  0  0
   -1.2282   -0.4388   -0.0170 C   0  0  0  0  0  0  0  0  0  0  0  0
   -2.2547    0.5155    0.1934 O   0  0  0  0  0  0  0  0  0  0  0  0
    2.9801   -0.5665    0.4843 H   0  0  0  0  0  0  0  0  0  0  0  0
    1.8801    0.8941   -1.1750 H   0  0  0  0  0  0  0  0  0  0  0  0
   -0.4988    0.6442   -1.7745 H   0  0  0  0  0  0  0  0  0  0  0  0
   -1.6758   -1.2864   -0.5723 H   0  0  0  0  0  0  0  0  0  0  0  0
   -0.9055   -0.7560    0.9936 H   0  0  0  0  0  0  0  0  0  0  0  0
   -2.9270    0.1967    0.8124 H   0  0  0  0  0  0  0  0  0  0  0  0
  1  2  2  0
  2  3  1  0
  3  4  1  0
  4  5  1  0
  5  6  1  0
  6  7  1  0
  5  3  1  0
  2  8  1  0
  3  9  1  0
  5 10  1  0
  6 11  1  0
  6 12  1  0
  7 13  1  0
M  END
