
     RDKit          3D

 20 19  0  0  0  0  0  0  0  0999 V2000
   -3.6826    1.2623    0.7636 O   0  0  0  0  0  0  0  0  0  0  0  0
   -2.6615    0.6075    0.6508 C   0  0  0  0  0  0  0  0  0  0  0  0
   -2.3505    0.0749   -0.7037 C   0  0  0  0  0  0  0  0  0  0  0  0
   -1.0591   -0.7193   -0.7101 C   0  0  0  0  0  0  0  0  0  0  0  0
    0.0581    0.1806   -0.2764 C   0  0  0  0  0  0  0  0  0  0  0  0
    1.3918   -0.5076   -0.2464 C   0  0  0  0  0  0  0  0  0  0  0  0
    2.4724    0.4445    0.1956 C   0  0  0  0  0  0  0  0  0  0  0  0
    3.7189   -0.1784    0.2293 O   0  0  0  0  0  0  0  0  0  0  0  0
   -2.0429    0.4487    1.5249 H   0  0  0  0  0  0  0  0  0  0  0  0
   -3.2071   -0.5583   -1.0298 H   0  0  0  0  0  0  0  0  0  0  0  0
   -2.2303    0.9503   -1.3744 H   0  0  0  0  0  0  0  0  0  0  0  0
   -0.8718   -1.0109   -1.7641 H   0  0  0  0  0  0  0  0  0  0  0  0
   -1.1481   -1.6343   -0.0931 H   0  0  0  0  0  0  0  0  0  0  0  0
    0.0811    1.0716   -0.9295 H   0  0  0  0  0  0  0  0  0  0  0  0
   -0.1375    0.5603    0.7572 H   0  0  0  0  0  0  0  0  0  0  0  0
    1.3375   -1.3099    0.5245 H   0  0  0  0  0  0  0  0  0  0  0  0
    1.6856   -0.9532   -1.1959 H   0  0  0  0  0  0  0  0  0  0  0  0
    2.5798    1.3115   -0.4966 H   0  0  0  0  0  0  0  0  0  0  0  0
    2.2837    0.8199    1.2304 H   0  0  0  0  0  0  0  0  0  0  0  0
    3.7825   -0.8604    0.9442 H   0  0  0  0  0  0  0  0  0  0  0  0
  1  2  2  0
  2  3  1  0
  3  4  1  0
  4  5  1  0
  5  6  1  0
  6  7  1  0
  7  8  1  0
  2  9  1  0
  3 10  1  0
  3 11  1  0
  4 12  1  0
  4 13  1  0
  5 14  1  0
  5 15  1  0
  6 16  1  0
  6 17  1  0
  7 18  1  0
  7 19  1  0
  8 20  1  0
M  END
