
     RDKit          3D

 17 18  0  0  0  0  0  0  0  0999 V2000
   -2.3551    0.7601    1.2245 O   0  0  0  0  0  0  0  0  0  0  0  0
   -2.0189   -0.2625    0.6575 C   0  0  0  0  0  0  0  0  0  0  0  0
   -1.0851   -0.1705   -0.4840 C   0  0  0  0  0  0  0  0  0  0  0  0
   -0.7515    1.1291   -0.7044 O   0  0  0  0  0  0  0  0  0  0  0  0
    0.5454    1.4700   -0.4104 C   0  0  0  0  0  0  0  0  0  0  0  0
    1.4569    0.2860   -0.2420 C   0  0  0  0  0  0  0  0  0  0  0  0
    0.9770   -0.6940    0.7769 C   0  0  0  0  0  0  0  0  0  0  0  0
    0.0953   -1.0883   -0.3668 C   0  0  0  0  0  0  0  0  0  0  0  0
    1.0937   -0.6290   -1.2385 O   0  0  0  0  0  0  0  0  0  0  0  0
   -2.4431   -1.1819    1.0464 H   0  0  0  0  0  0  0  0  0  0  0  0
   -1.6664   -0.5267   -1.3847 H   0  0  0  0  0  0  0  0  0  0  0  0
    0.9455    2.0652   -1.2642 H   0  0  0  0  0  0  0  0  0  0  0  0
    0.5623    2.1471    0.4845 H   0  0  0  0  0  0  0  0  0  0  0  0
    2.5118    0.5691   -0.2156 H   0  0  0  0  0  0  0  0  0  0  0  0
    1.7463   -1.4550    0.9908 H   0  0  0  0  0  0  0  0  0  0  0  0
    0.4669   -0.2761    1.6646 H   0  0  0  0  0  0  0  0  0  0  0  0
   -0.0812   -2.1426   -0.5345 H   0  0  0  0  0  0  0  0  0  0  0  0
  1  2  2  0
  2  3  1  0
  3  4  1  0
  4  5  1  0
  5  6  1  0
  6  7  1  0
  7  8  1  0
  8  9  1  0
  8  3  1  0
  9  6  1  0
  2 10  1  0
  3 11  1  0
  5 12  1  0
  5 13  1  0
  6 14  1  0
  7 15  1  0
  7 16  1  0
  8 17  1  0
M  END
