
     RDKit          3D

 17 18  0  0  0  0  0  0  0  0999 V2000
    2.7322   -1.7288    0.0339 O   0  0  0  0  0  0  0  0  0  0  0  0
    2.4826   -0.4999   -0.0750 C   0  0  0  0  0  0  0  0  0  0  0  0
    1.1141   -0.0440    0.0044 C   0  0  0  0  0  0  0  0  0  0  0  0
    0.7562    1.2208   -0.0981 C   0  0  0  0  0  0  0  0  0  0  0  0
   -0.7164    1.3402    0.0272 C   0  0  0  0  0  0  0  0  0  0  0  0
   -1.1637   -0.1100    0.2631 C   0  0  0  0  0  0  0  0  0  0  0  0
   -2.2117   -0.2938    1.1729 O   0  0  0  0  0  0  0  0  0  0  0  0
   -1.0971   -1.1045   -0.8094 C   0  0  0  0  0  0  0  0  0  0  0  0
   -0.0835   -0.8988    0.2089 C   0  0  0  0  0  0  0  0  0  0  0  0
    3.3314    0.1499   -0.2246 H   0  0  0  0  0  0  0  0  0  0  0  0
    1.3997    2.0906   -0.2521 H   0  0  0  0  0  0  0  0  0  0  0  0
   -1.0463    1.9938    0.8289 H   0  0  0  0  0  0  0  0  0  0  0  0
   -1.1153    1.6060   -0.9782 H   0  0  0  0  0  0  0  0  0  0  0  0
   -2.0802    0.3208    1.9356 H   0  0  0  0  0  0  0  0  0  0  0  0
   -1.8981   -0.7013   -1.3866 H   0  0  0  0  0  0  0  0  0  0  0  0
   -0.4484   -1.5456   -1.5483 H   0  0  0  0  0  0  0  0  0  0  0  0
    0.0448   -1.7953    0.8976 H   0  0  0  0  0  0  0  0  0  0  0  0
  1  2  2  0
  2  3  1  0
  3  4  2  0
  4  5  1  0
  5  6  1  0
  6  7  1  0
  6  8  1  0
  8  9  1  0
  9  3  1  0
  9  6  1  0
  2 10  1  0
  4 11  1  0
  5 12  1  0
  5 13  1  0
  7 14  1  0
  8 15  1  0
  8 16  1  0
  9 17  1  0
M  END
