
     RDKit          3D

 13 14  0  0  0  0  0  0  0  0999 V2000
   -2.0594    1.8022    0.4839 O   0  0  0  0  0  0  0  0  0  0  0  0
   -1.5653    0.7136    0.5814 C   0  0  0  0  0  0  0  0  0  0  0  0
   -0.4972    0.2105   -0.2915 C   0  0  0  0  0  0  0  0  0  0  0  0
   -0.2576   -1.2675   -0.3898 C   0  0  0  0  0  0  0  0  0  0  0  0
    1.1552   -1.3551   -0.5290 O   0  0  0  0  0  0  0  0  0  0  0  0
    1.7653   -0.2288    0.0068 C   0  0  0  0  0  0  0  0  0  0  0  0
    2.8933   -0.1089    0.5557 O   0  0  0  0  0  0  0  0  0  0  0  0
    0.8144    0.8789   -0.1836 C   0  0  0  0  0  0  0  0  0  0  0  0
    0.0290    0.9620   -1.3069 O   0  0  0  0  0  0  0  0  0  0  0  0
   -1.9287    0.0557    1.3638 H   0  0  0  0  0  0  0  0  0  0  0  0
   -0.5036   -1.7527    0.5813 H   0  0  0  0  0  0  0  0  0  0  0  0
   -0.7895   -1.7446   -1.2295 H   0  0  0  0  0  0  0  0  0  0  0  0
    0.9441    1.8347    0.3575 H   0  0  0  0  0  0  0  0  0  0  0  0
  1  2  2  0
  2  3  1  0
  3  4  1  0
  4  5  1  0
  5  6  1  0
  6  7  2  0
  6  8  1  0
  8  9  1  0
  8  3  1  0
  9  3  1  0
  2 10  1  0
  4 11  1  0
  4 12  1  0
  8 13  1  0
M  END
