
     RDKit          3D

 15 16  0  0  0  0  0  0  0  0999 V2000
    3.1600   -0.8186    0.8765 O   0  0  0  0  0  0  0  0  0  0  0  0
    2.4375   -0.7769   -0.1439 C   0  0  0  0  0  0  0  0  0  0  0  0
    1.0524   -0.2173   -0.0827 C   0  0  0  0  0  0  0  0  0  0  0  0
    0.4843    0.2640    1.0008 C   0  0  0  0  0  0  0  0  0  0  0  0
   -0.8822    0.7409    0.7456 C   0  0  0  0  0  0  0  0  0  0  0  0
   -1.9601   -0.1884    0.3306 C   0  0  0  0  0  0  0  0  0  0  0  0
   -1.1278    0.4311   -0.7186 C   0  0  0  0  0  0  0  0  0  0  0  0
    0.1324   -0.1172   -1.1875 C   0  0  0  0  0  0  0  0  0  0  0  0
    0.3593   -0.4496   -2.3985 O   0  0  0  0  0  0  0  0  0  0  0  0
    2.8409   -1.1534   -1.0595 H   0  0  0  0  0  0  0  0  0  0  0  0
    1.0096    0.2917    1.9868 H   0  0  0  0  0  0  0  0  0  0  0  0
   -1.1107    1.8028    1.0300 H   0  0  0  0  0  0  0  0  0  0  0  0
   -1.8276   -1.2617    0.5772 H   0  0  0  0  0  0  0  0  0  0  0  0
   -2.9879    0.2196    0.4207 H   0  0  0  0  0  0  0  0  0  0  0  0
   -1.5800    1.2329   -1.3543 H   0  0  0  0  0  0  0  0  0  0  0  0
  1  2  2  0
  2  3  1  0
  3  4  2  0
  4  5  1  0
  5  6  1  0
  6  7  1  0
  7  8  1  0
  8  9  2  0
  8  3  1  0
  7  5  1  0
  2 10  1  0
  4 11  1  0
  5 12  1  0
  6 13  1  0
  6 14  1  0
  7 15  1  0
M  END
