
     RDKit          3D

 19 19  0  0  0  0  0  0  0  0999 V2000
    3.9895    0.0006   -0.5033 O   0  0  0  0  0  0  0  0  0  0  0  0
    2.7969    0.1843   -0.5510 C   0  0  0  0  0  0  0  0  0  0  0  0
    1.8822   -0.5338    0.3563 C   0  0  0  0  0  0  0  0  0  0  0  0
    0.4745   -0.1753    0.1445 C   0  0  0  0  0  0  0  0  0  0  0  0
   -0.4113   -1.1000   -0.2002 C   0  0  0  0  0  0  0  0  0  0  0  0
   -1.8206   -0.7067   -0.4059 C   0  0  0  0  0  0  0  0  0  0  0  0
   -2.2390    0.4670    0.4340 C   0  0  0  0  0  0  0  0  0  0  0  0
   -1.2140    1.1075    1.0700 O   0  0  0  0  0  0  0  0  0  0  0  0
   -0.0530    1.2132    0.2955 C   0  0  0  0  0  0  0  0  0  0  0  0
    2.4015    0.8807   -1.2652 H   0  0  0  0  0  0  0  0  0  0  0  0
    2.0034   -1.6202    0.1233 H   0  0  0  0  0  0  0  0  0  0  0  0
    2.2233   -0.3713    1.4021 H   0  0  0  0  0  0  0  0  0  0  0  0
   -0.1332   -2.1393   -0.3364 H   0  0  0  0  0  0  0  0  0  0  0  0
   -2.4777   -1.5745   -0.1304 H   0  0  0  0  0  0  0  0  0  0  0  0
   -1.9725   -0.5364   -1.4767 H   0  0  0  0  0  0  0  0  0  0  0  0
   -2.7384    1.2072   -0.2414 H   0  0  0  0  0  0  0  0  0  0  0  0
   -2.9785    0.1570    1.2273 H   0  0  0  0  0  0  0  0  0  0  0  0
    0.6550    1.9053    0.7449 H   0  0  0  0  0  0  0  0  0  0  0  0
   -0.3881    1.6345   -0.6874 H   0  0  0  0  0  0  0  0  0  0  0  0
  1  2  2  0
  2  3  1  0
  3  4  1  0
  4  5  2  0
  5  6  1  0
  6  7  1  0
  7  8  1  0
  8  9  1  0
  9  4  1  0
  2 10  1  0
  3 11  1  0
  3 12  1  0
  5 13  1  0
  6 14  1  0
  6 15  1  0
  7 16  1  0
  7 17  1  0
  9 18  1  0
  9 19  1  0
M  END
