
     RDKit          3D

 17 17  0  0  0  0  0  0  0  0999 V2000
    3.9401   -0.4977   -1.3023 O   0  0  0  0  0  0  0  0  0  0  0  0
    3.4926   -0.6969   -0.1466 C   0  0  0  0  0  0  0  0  0  0  0  0
    2.0932   -0.6067    0.1594 C   0  0  0  0  0  0  0  0  0  0  0  0
    0.9096   -0.5251    0.4186 C   0  0  0  0  0  0  0  0  0  0  0  0
   -0.5180   -0.4218    0.7569 C   0  0  0  0  0  0  0  0  0  0  0  0
   -1.3602   -0.6589   -0.4960 C   0  0  0  0  0  0  0  0  0  0  0  0
   -1.6693    0.7371   -0.9655 C   0  0  0  0  0  0  0  0  0  0  0  0
   -0.7387    1.5350   -0.3175 O   0  0  0  0  0  0  0  0  0  0  0  0
   -0.7791    1.0556    0.9859 C   0  0  0  0  0  0  0  0  0  0  0  0
    4.2204   -0.9455    0.6307 H   0  0  0  0  0  0  0  0  0  0  0  0
   -0.8280   -1.0564    1.5829 H   0  0  0  0  0  0  0  0  0  0  0  0
   -2.2808   -1.2362   -0.2732 H   0  0  0  0  0  0  0  0  0  0  0  0
   -0.7351   -1.2169   -1.2200 H   0  0  0  0  0  0  0  0  0  0  0  0
   -2.7205    1.0329   -0.7778 H   0  0  0  0  0  0  0  0  0  0  0  0
   -1.4186    0.7673   -2.0533 H   0  0  0  0  0  0  0  0  0  0  0  0
   -1.7177    1.2568    1.5110 H   0  0  0  0  0  0  0  0  0  0  0  0
    0.1099    1.4776    1.5066 H   0  0  0  0  0  0  0  0  0  0  0  0
  1  2  2  0
  2  3  1  0
  3  4  3  0
  4  5  1  0
  5  6  1  0
  6  7  1  0
  7  8  1  0
  8  9  1  0
  9  5  1  0
  2 10  1  0
  5 11  1  0
  6 12  1  0
  6 13  1  0
  7 14  1  0
  7 15  1  0
  9 16  1  0
  9 17  1  0
M  END
