
     RDKit          3D

 16 17  0  0  0  0  0  0  0  0999 V2000
    2.4369   -1.7699   -0.3979 O   0  0  0  0  0  0  0  0  0  0  0  0
    1.9960   -0.7366    0.0671 C   0  0  0  0  0  0  0  0  0  0  0  0
    0.7276   -0.2131   -0.4058 C   0  0  0  0  0  0  0  0  0  0  0  0
    0.6109    1.3024   -0.3031 C   0  0  0  0  0  0  0  0  0  0  0  0
   -0.7434    1.4346   -0.6553 O   0  0  0  0  0  0  0  0  0  0  0  0
   -1.3860    0.6037    0.2157 C   0  0  0  0  0  0  0  0  0  0  0  0
   -1.7445   -0.7848   -0.1363 C   0  0  0  0  0  0  0  0  0  0  0  0
   -0.4522   -0.5706    0.5034 C   0  0  0  0  0  0  0  0  0  0  0  0
    2.5619   -0.2255    0.8286 H   0  0  0  0  0  0  0  0  0  0  0  0
    0.4626   -0.4998   -1.4386 H   0  0  0  0  0  0  0  0  0  0  0  0
    1.2860    1.8383   -0.9503 H   0  0  0  0  0  0  0  0  0  0  0  0
    0.6766    1.5422    0.7734 H   0  0  0  0  0  0  0  0  0  0  0  0
   -1.9077    1.0916    1.0445 H   0  0  0  0  0  0  0  0  0  0  0  0
   -2.5266   -1.2760    0.4858 H   0  0  0  0  0  0  0  0  0  0  0  0
   -1.7485   -1.0430   -1.2047 H   0  0  0  0  0  0  0  0  0  0  0  0
   -0.2495   -0.6934    1.5736 H   0  0  0  0  0  0  0  0  0  0  0  0
  1  2  2  0
  2  3  1  0
  3  4  1  0
  4  5  1  0
  5  6  1  0
  6  7  1  0
  7  8  1  0
  8  3  1  0
  8  6  1  0
  2  9  1  0
  3 10  1  0
  4 11  1  0
  4 12  1  0
  6 13  1  0
  7 14  1  0
  7 15  1  0
  8 16  1  0
M  END
