
     RDKit          3D

 17 18  0  0  0  0  0  0  0  0999 V2000
   -2.6337   -0.7054    1.0237 O   0  0  0  0  0  0  0  0  0  0  0  0
   -2.1283    0.0679    0.2050 C   0  0  0  0  0  0  0  0  0  0  0  0
   -0.7326    0.0678   -0.0468 C   0  0  0  0  0  0  0  0  0  0  0  0
   -0.0852    1.3823   -0.3147 C   0  0  0  0  0  0  0  0  0  0  0  0
    1.2232    1.2176   -0.1247 C   0  0  0  0  0  0  0  0  0  0  0  0
    1.4377   -0.1639    0.3122 C   0  0  0  0  0  0  0  0  0  0  0  0
    1.0833   -1.0488   -0.8534 C   0  0  0  0  0  0  0  0  0  0  0  0
   -0.2146   -0.8654   -1.0759 C   0  0  0  0  0  0  0  0  0  0  0  0
    0.1500   -0.3842    1.1371 C   0  0  0  0  0  0  0  0  0  0  0  0
   -2.8037    0.7334   -0.2993 H   0  0  0  0  0  0  0  0  0  0  0  0
   -0.6337    2.2674   -0.6060 H   0  0  0  0  0  0  0  0  0  0  0  0
    1.9901    1.9667   -0.2667 H   0  0  0  0  0  0  0  0  0  0  0  0
    2.3318   -0.4112    0.8214 H   0  0  0  0  0  0  0  0  0  0  0  0
    1.7361   -1.7025   -1.4049 H   0  0  0  0  0  0  0  0  0  0  0  0
   -0.8175   -1.2987   -1.8534 H   0  0  0  0  0  0  0  0  0  0  0  0
   -0.0007   -1.4347    1.3765 H   0  0  0  0  0  0  0  0  0  0  0  0
    0.0979    0.3117    1.9701 H   0  0  0  0  0  0  0  0  0  0  0  0
  1  2  2  0
  2  3  1  0
  3  4  1  0
  4  5  2  0
  5  6  1  0
  6  7  1  0
  7  8  2  0
  6  9  1  0
  8  3  1  0
  9  3  1  0
  2 10  1  0
  4 11  1  0
  5 12  1  0
  6 13  1  0
  7 14  1  0
  8 15  1  0
  9 16  1  0
  9 17  1  0
M  END
