
     RDKit          3D

 19 19  0  0  0  0  0  0  0  0999 V2000
    3.3308   -1.1186    0.0935 O   0  0  0  0  0  0  0  0  0  0  0  0
    2.4575   -0.4620    0.6221 C   0  0  0  0  0  0  0  0  0  0  0  0
    1.6382    0.5801   -0.0488 C   0  0  0  0  0  0  0  0  0  0  0  0
    2.0321    0.6863   -1.3887 O   0  0  0  0  0  0  0  0  0  0  0  0
    0.2019    0.2796    0.0934 C   0  0  0  0  0  0  0  0  0  0  0  0
   -0.7608    0.9636    0.6411 C   0  0  0  0  0  0  0  0  0  0  0  0
   -2.0842    0.2931    0.5717 C   0  0  0  0  0  0  0  0  0  0  0  0
   -1.8951   -0.6455   -0.5934 C   0  0  0  0  0  0  0  0  0  0  0  0
   -0.4254   -0.9861   -0.4306 C   0  0  0  0  0  0  0  0  0  0  0  0
    2.2514   -0.6428    1.6661 H   0  0  0  0  0  0  0  0  0  0  0  0
    1.9272    1.5494    0.4177 H   0  0  0  0  0  0  0  0  0  0  0  0
    1.9180    1.6116   -1.6851 H   0  0  0  0  0  0  0  0  0  0  0  0
   -0.5948    1.9491    1.1097 H   0  0  0  0  0  0  0  0  0  0  0  0
   -2.2053   -0.3269    1.4870 H   0  0  0  0  0  0  0  0  0  0  0  0
   -2.9088    1.0092    0.4220 H   0  0  0  0  0  0  0  0  0  0  0  0
   -2.1177   -0.1893   -1.5607 H   0  0  0  0  0  0  0  0  0  0  0  0
   -2.5192   -1.5514   -0.4159 H   0  0  0  0  0  0  0  0  0  0  0  0
    0.0534   -1.2664   -1.3775 H   0  0  0  0  0  0  0  0  0  0  0  0
   -0.2994   -1.7327    0.3764 H   0  0  0  0  0  0  0  0  0  0  0  0
  1  2  2  0
  2  3  1  0
  3  4  1  0
  3  5  1  0
  5  6  2  0
  6  7  1  0
  7  8  1  0
  8  9  1  0
  9  5  1  0
  2 10  1  0
  3 11  1  0
  4 12  1  0
  6 13  1  0
  7 14  1  0
  7 15  1  0
  8 16  1  0
  8 17  1  0
  9 18  1  0
  9 19  1  0
M  END
