
     RDKit          3D

 17 17  0  0  0  0  0  0  0  0999 V2000
    0.8020   -2.1215    1.0571 O   0  0  0  0  0  0  0  0  0  0  0  0
    1.4247   -1.2644    0.4200 C   0  0  0  0  0  0  0  0  0  0  0  0
    0.7661   -0.2731   -0.4471 C   0  0  0  0  0  0  0  0  0  0  0  0
   -0.5218   -0.8636   -0.9673 C   0  0  0  0  0  0  0  0  0  0  0  0
   -1.5806   -0.2808   -0.0980 C   0  0  0  0  0  0  0  0  0  0  0  0
   -2.7563   -0.5912   -0.1866 O   0  0  0  0  0  0  0  0  0  0  0  0
   -1.0369    0.6933    0.8571 C   0  0  0  0  0  0  0  0  0  0  0  0
    0.3585    0.9694    0.2940 C   0  0  0  0  0  0  0  0  0  0  0  0
    0.2251    2.0502   -0.5747 O   0  0  0  0  0  0  0  0  0  0  0  0
    2.5101   -1.2921    0.5451 H   0  0  0  0  0  0  0  0  0  0  0  0
    1.4609    0.0218   -1.2422 H   0  0  0  0  0  0  0  0  0  0  0  0
   -0.5544   -1.9753   -0.8046 H   0  0  0  0  0  0  0  0  0  0  0  0
   -0.6831   -0.6718   -2.0383 H   0  0  0  0  0  0  0  0  0  0  0  0
   -0.9339    0.2834    1.8820 H   0  0  0  0  0  0  0  0  0  0  0  0
   -1.6258    1.6271    0.9404 H   0  0  0  0  0  0  0  0  0  0  0  0
    1.0919    1.1505    1.0889 H   0  0  0  0  0  0  0  0  0  0  0  0
    1.0535    2.5379   -0.7257 H   0  0  0  0  0  0  0  0  0  0  0  0
  1  2  2  0
  2  3  1  0
  3  4  1  0
  4  5  1  0
  5  6  2  0
  5  7  1  0
  7  8  1  0
  8  9  1  0
  8  3  1  0
  2 10  1  0
  3 11  1  0
  4 12  1  0
  4 13  1  0
  7 14  1  0
  7 15  1  0
  8 16  1  0
  9 17  1  0
M  END
