
     RDKit          3D

 19 19  0  0  0  0  0  0  0  0999 V2000
    3.0291    1.3011   -1.2152 O   0  0  0  0  0  0  0  0  0  0  0  0
    2.5973    0.7808   -0.2009 C   0  0  0  0  0  0  0  0  0  0  0  0
    1.9017   -0.5277   -0.2164 C   0  0  0  0  0  0  0  0  0  0  0  0
    0.4783   -0.3469   -0.6336 C   0  0  0  0  0  0  0  0  0  0  0  0
   -0.2813    0.5737    0.3207 C   0  0  0  0  0  0  0  0  0  0  0  0
   -1.7011    0.2753   -0.1614 C   0  0  0  0  0  0  0  0  0  0  0  0
   -2.6416    0.5587    0.7943 O   0  0  0  0  0  0  0  0  0  0  0  0
   -1.5722   -1.2139   -0.4314 C   0  0  0  0  0  0  0  0  0  0  0  0
   -0.2449   -1.5125   -0.5035 O   0  0  0  0  0  0  0  0  0  0  0  0
    2.7475    1.3261    0.7228 H   0  0  0  0  0  0  0  0  0  0  0  0
    1.9679   -1.0845    0.7181 H   0  0  0  0  0  0  0  0  0  0  0  0
    2.4039   -1.1346   -1.0214 H   0  0  0  0  0  0  0  0  0  0  0  0
    0.4547    0.1129   -1.6359 H   0  0  0  0  0  0  0  0  0  0  0  0
   -0.1691    0.2547    1.3745 H   0  0  0  0  0  0  0  0  0  0  0  0
   -0.0551    1.6265    0.1461 H   0  0  0  0  0  0  0  0  0  0  0  0
   -1.8696    0.7602   -1.1440 H   0  0  0  0  0  0  0  0  0  0  0  0
   -2.8881    1.5297    0.6904 H   0  0  0  0  0  0  0  0  0  0  0  0
   -2.1385   -1.4779   -1.3578 H   0  0  0  0  0  0  0  0  0  0  0  0
   -2.0189   -1.8017    0.4034 H   0  0  0  0  0  0  0  0  0  0  0  0
  1  2  2  0
  2  3  1  0
  3  4  1  0
  4  5  1  0
  5  6  1  0
  6  7  1  0
  6  8  1  0
  8  9  1  0
  9  4  1  0
  2 10  1  0
  3 11  1  0
  3 12  1  0
  4 13  1  0
  5 14  1  0
  5 15  1  0
  6 16  1  0
  7 17  1  0
  8 18  1  0
  8 19  1  0
M  END
