
     RDKit          3D

 15 16  0  0  0  0  0  0  0  0999 V2000
    2.9936   -0.2766   -0.8185 O   0  0  0  0  0  0  0  0  0  0  0  0
    2.3354   -0.3335    0.2087 C   0  0  0  0  0  0  0  0  0  0  0  0
    1.0397    0.3493    0.2488 C   0  0  0  0  0  0  0  0  0  0  0  0
   -0.1137   -0.4142    0.8154 C   0  0  0  0  0  0  0  0  0  0  0  0
   -0.0570   -1.2089   -0.3207 O   0  0  0  0  0  0  0  0  0  0  0  0
    0.0916    0.0503   -0.8671 C   0  0  0  0  0  0  0  0  0  0  0  0
   -1.0141    0.4941    0.0473 C   0  0  0  0  0  0  0  0  0  0  0  0
   -2.3556    0.0027   -0.2617 C   0  0  0  0  0  0  0  0  0  0  0  0
   -3.0267    0.5166   -1.1357 O   0  0  0  0  0  0  0  0  0  0  0  0
    2.7561   -0.8906    1.0317 H   0  0  0  0  0  0  0  0  0  0  0  0
    1.0813    1.4231    0.5300 H   0  0  0  0  0  0  0  0  0  0  0  0
   -0.2269   -0.7313    1.7657 H   0  0  0  0  0  0  0  0  0  0  0  0
    0.1974    0.2887   -1.8398 H   0  0  0  0  0  0  0  0  0  0  0  0
   -0.9188    1.5602    0.3154 H   0  0  0  0  0  0  0  0  0  0  0  0
   -2.7824   -0.8299    0.2804 H   0  0  0  0  0  0  0  0  0  0  0  0
  1  2  2  0
  2  3  1  0
  3  4  1  0
  4  5  1  0
  5  6  1  0
  6  7  1  0
  7  8  1  0
  8  9  2  0
  6  3  1  0
  7  4  1  0
  2 10  1  0
  3 11  1  0
  4 12  1  0
  6 13  1  0
  7 14  1  0
  8 15  1  0
M  END
