
     RDKit          3D

 19 20  0  0  0  0  0  0  0  0999 V2000
   -0.0361    2.7382   -0.2412 O   0  0  0  0  0  0  0  0  0  0  0  0
   -0.7037    1.7786   -0.5890 C   0  0  0  0  0  0  0  0  0  0  0  0
   -0.5409    0.4977    0.0992 C   0  0  0  0  0  0  0  0  0  0  0  0
   -1.7594   -0.1769    0.7189 C   0  0  0  0  0  0  0  0  0  0  0  0
   -1.4678   -1.3749   -0.1661 C   0  0  0  0  0  0  0  0  0  0  0  0
   -0.1749   -0.7480   -0.6142 C   0  0  0  0  0  0  0  0  0  0  0  0
    0.7417   -0.1209    0.4079 C   0  0  0  0  0  0  0  0  0  0  0  0
    2.0485    0.3493   -0.1294 C   0  0  0  0  0  0  0  0  0  0  0  0
    3.0886   -0.4573    0.3570 O   0  0  0  0  0  0  0  0  0  0  0  0
   -1.4216    1.8446   -1.4001 H   0  0  0  0  0  0  0  0  0  0  0  0
   -1.5082   -0.4217    1.7819 H   0  0  0  0  0  0  0  0  0  0  0  0
   -2.7117    0.3267    0.5501 H   0  0  0  0  0  0  0  0  0  0  0  0
   -2.2274   -1.4311   -0.9687 H   0  0  0  0  0  0  0  0  0  0  0  0
   -1.2631   -2.3166    0.3706 H   0  0  0  0  0  0  0  0  0  0  0  0
    0.0532   -0.6567   -1.6880 H   0  0  0  0  0  0  0  0  0  0  0  0
    0.8155   -0.6514    1.4007 H   0  0  0  0  0  0  0  0  0  0  0  0
    2.0911    0.2828   -1.2435 H   0  0  0  0  0  0  0  0  0  0  0  0
    2.2139    1.4189    0.1600 H   0  0  0  0  0  0  0  0  0  0  0  0
    2.7624   -0.8813    1.1937 H   0  0  0  0  0  0  0  0  0  0  0  0
  1  2  2  0
  2  3  1  0
  3  4  1  0
  4  5  1  0
  5  6  1  0
  6  7  1  0
  7  8  1  0
  8  9  1  0
  6  3  1  0
  7  3  1  0
  2 10  1  0
  4 11  1  0
  4 12  1  0
  5 13  1  0
  5 14  1  0
  6 15  1  0
  7 16  1  0
  8 17  1  0
  8 18  1  0
  9 19  1  0
M  END
