
     RDKit          3D

 14 14  0  0  0  0  0  0  0  0999 V2000
    0.6866   -1.9032   -1.0554 O   0  0  0  0  0  0  0  0  0  0  0  0
    1.1546   -1.0202   -0.3602 C   0  0  0  0  0  0  0  0  0  0  0  0
    0.4996    0.2897   -0.2845 C   0  0  0  0  0  0  0  0  0  0  0  0
    1.3757    1.3322    0.3029 C   0  0  0  0  0  0  0  0  0  0  0  0
    2.5954    1.2070    0.4065 O   0  0  0  0  0  0  0  0  0  0  0  0
   -0.8055    0.2718    0.4756 C   0  0  0  0  0  0  0  0  0  0  0  0
   -1.8852   -0.6411   -0.0860 C   0  0  0  0  0  0  0  0  0  0  0  0
   -1.2100   -0.9043    1.0981 O   0  0  0  0  0  0  0  0  0  0  0  0
    2.0610   -1.1966    0.2090 H   0  0  0  0  0  0  0  0  0  0  0  0
    0.2714    0.6322   -1.3323 H   0  0  0  0  0  0  0  0  0  0  0  0
    0.8700    2.2475    0.6509 H   0  0  0  0  0  0  0  0  0  0  0  0
   -1.1384    1.2018    0.9774 H   0  0  0  0  0  0  0  0  0  0  0  0
   -2.9015   -0.2167   -0.0717 H   0  0  0  0  0  0  0  0  0  0  0  0
   -1.5738   -1.3000   -0.9302 H   0  0  0  0  0  0  0  0  0  0  0  0
  1  2  2  0
  2  3  1  0
  3  4  1  0
  4  5  2  0
  3  6  1  0
  6  7  1  0
  7  8  1  0
  8  6  1  0
  2  9  1  0
  3 10  1  0
  4 11  1  0
  6 12  1  0
  7 13  1  0
  7 14  1  0
M  END
