
     RDKit          3D

 15 16  0  0  0  0  0  0  0  0999 V2000
    4.0398    0.1389   -1.6137 O   0  0  0  0  0  0  0  0  0  0  0  0
    3.4182    0.7783   -0.7411 C   0  0  0  0  0  0  0  0  0  0  0  0
    2.0525    0.3631   -0.4461 C   0  0  0  0  0  0  0  0  0  0  0  0
    0.9290    0.0388   -0.1973 C   0  0  0  0  0  0  0  0  0  0  0  0
   -0.3435   -0.3052    0.0757 C   0  0  0  0  0  0  0  0  0  0  0  0
   -1.5434    0.0440   -0.7075 C   0  0  0  0  0  0  0  0  0  0  0  0
   -1.9701   -0.8385    0.4290 C   0  0  0  0  0  0  0  0  0  0  0  0
   -1.0929   -0.0125    1.3151 C   0  0  0  0  0  0  0  0  0  0  0  0
   -0.8284   -1.5952    0.1495 O   0  0  0  0  0  0  0  0  0  0  0  0
    3.8961    1.5996   -0.2418 H   0  0  0  0  0  0  0  0  0  0  0  0
   -1.6077   -0.5025   -1.6669 H   0  0  0  0  0  0  0  0  0  0  0  0
   -1.8989    1.0770   -0.7055 H   0  0  0  0  0  0  0  0  0  0  0  0
   -2.8910   -1.1924    0.6200 H   0  0  0  0  0  0  0  0  0  0  0  0
   -1.3963    1.0138    1.5208 H   0  0  0  0  0  0  0  0  0  0  0  0
   -0.7632   -0.6073    2.2097 H   0  0  0  0  0  0  0  0  0  0  0  0
  1  2  2  0
  2  3  1  0
  3  4  3  0
  4  5  1  0
  5  6  1  0
  6  7  1  0
  7  8  1  0
  7  9  1  0
  8  5  1  0
  9  5  1  0
  2 10  1  0
  6 11  1  0
  6 12  1  0
  7 13  1  0
  8 14  1  0
  8 15  1  0
M  END
