
     RDKit          3D

 15 15  0  0  0  0  0  0  0  0999 V2000
    3.5405    0.8297    2.3338 O   0  0  0  0  0  0  0  0  0  0  0  0
    2.2801    0.5999    2.4411 C   0  0  0  0  0  0  0  0  0  0  0  0
    1.4108    0.2148    1.5598 C   0  0  0  0  0  0  0  0  0  0  0  0
    0.3902   -0.2667    0.5061 C   0  0  0  0  0  0  0  0  0  0  0  0
   -0.3783   -0.6089   -0.2705 C   0  0  0  0  0  0  0  0  0  0  0  0
   -0.6632   -2.1177   -0.4435 O   0  0  0  0  0  0  0  0  0  0  0  0
   -1.6882    0.0486   -0.6521 C   0  0  0  0  0  0  0  0  0  0  0  0
   -0.5834   -0.0626   -1.7073 C   0  0  0  0  0  0  0  0  0  0  0  0
    0.1834    1.1168   -1.9766 O   0  0  0  0  0  0  0  0  0  0  0  0
    1.9881    0.7968    3.5356 H   0  0  0  0  0  0  0  0  0  0  0  0
   -0.8289   -2.1279   -1.4124 H   0  0  0  0  0  0  0  0  0  0  0  0
   -2.5824   -0.5729   -0.7684 H   0  0  0  0  0  0  0  0  0  0  0  0
   -1.9094    1.0922   -0.3764 H   0  0  0  0  0  0  0  0  0  0  0  0
   -0.6828   -0.7759   -2.5317 H   0  0  0  0  0  0  0  0  0  0  0  0
   -0.4766    1.8339   -2.2252 H   0  0  0  0  0  0  0  0  0  0  0  0
  1  2  2  0
  2  3  1  0
  3  4  3  0
  4  5  1  0
  5  6  1  0
  5  7  1  0
  7  8  1  0
  8  9  1  0
  8  5  1  0
  2 10  1  0
  6 11  1  0
  7 12  1  0
  7 13  1  0
  8 14  1  0
  9 15  1  0
M  END
