
     RDKit          3D

 19 19  0  0  0  0  0  0  0  0999 V2000
   -2.3212   -2.1153   -0.5301 O   0  0  0  0  0  0  0  0  0  0  0  0
   -2.2537   -0.9947   -0.0954 C   0  0  0  0  0  0  0  0  0  0  0  0
   -0.9427   -0.4050    0.2320 C   0  0  0  0  0  0  0  0  0  0  0  0
   -0.9016    1.0933    0.0625 C   0  0  0  0  0  0  0  0  0  0  0  0
    0.5836    1.3920    0.0616 C   0  0  0  0  0  0  0  0  0  0  0  0
    1.2783    0.1189   -0.3673 C   0  0  0  0  0  0  0  0  0  0  0  0
    2.1740   -0.4267    0.6736 C   0  0  0  0  0  0  0  0  0  0  0  0
    1.6994   -0.9323    1.6634 O   0  0  0  0  0  0  0  0  0  0  0  0
    0.1686   -0.8812   -0.6715 C   0  0  0  0  0  0  0  0  0  0  0  0
   -3.1438   -0.4216    0.0552 H   0  0  0  0  0  0  0  0  0  0  0  0
   -0.6781   -0.6233    1.3031 H   0  0  0  0  0  0  0  0  0  0  0  0
   -1.3509    1.5881    0.9323 H   0  0  0  0  0  0  0  0  0  0  0  0
   -1.3842    1.4376   -0.8676 H   0  0  0  0  0  0  0  0  0  0  0  0
    0.9338    1.7400    1.0439 H   0  0  0  0  0  0  0  0  0  0  0  0
    0.7564    2.2143   -0.6697 H   0  0  0  0  0  0  0  0  0  0  0  0
    1.7862    0.3158   -1.3229 H   0  0  0  0  0  0  0  0  0  0  0  0
    3.2370   -0.3648    0.5330 H   0  0  0  0  0  0  0  0  0  0  0  0
    0.4962   -1.8799   -0.3207 H   0  0  0  0  0  0  0  0  0  0  0  0
   -0.1374   -0.8552   -1.7155 H   0  0  0  0  0  0  0  0  0  0  0  0
  1  2  2  0
  2  3  1  0
  3  4  1  0
  4  5  1  0
  5  6  1  0
  6  7  1  0
  7  8  2  0
  6  9  1  0
  9  3  1  0
  2 10  1  0
  3 11  1  0
  4 12  1  0
  4 13  1  0
  5 14  1  0
  5 15  1  0
  6 16  1  0
  7 17  1  0
  9 18  1  0
  9 19  1  0
M  END
