
     RDKit          3D

 16 17  0  0  0  0  0  0  0  0999 V2000
   -2.6617    0.9958    0.2343 O   0  0  0  0  0  0  0  0  0  0  0  0
   -2.3078   -0.1629    0.2864 C   0  0  0  0  0  0  0  0  0  0  0  0
   -1.1796   -0.6810   -0.5291 C   0  0  0  0  0  0  0  0  0  0  0  0
    0.0878   -0.2251    0.1462 C   0  0  0  0  0  0  0  0  0  0  0  0
    0.2947    1.2303    0.2963 C   0  0  0  0  0  0  0  0  0  0  0  0
    1.1962    0.4243   -0.5426 C   0  0  0  0  0  0  0  0  0  0  0  0
    2.1242   -0.4818    0.2707 C   0  0  0  0  0  0  0  0  0  0  0  0
    0.9484   -1.1605    0.6635 O   0  0  0  0  0  0  0  0  0  0  0  0
   -2.8224   -0.8438    0.9432 H   0  0  0  0  0  0  0  0  0  0  0  0
   -1.3001   -0.2422   -1.5423 H   0  0  0  0  0  0  0  0  0  0  0  0
   -1.2820   -1.7676   -0.5979 H   0  0  0  0  0  0  0  0  0  0  0  0
   -0.4110    1.8864   -0.2146 H   0  0  0  0  0  0  0  0  0  0  0  0
    0.6317    1.5367    1.3229 H   0  0  0  0  0  0  0  0  0  0  0  0
    1.3324    0.5403   -1.6050 H   0  0  0  0  0  0  0  0  0  0  0  0
    2.5282    0.0210    1.1854 H   0  0  0  0  0  0  0  0  0  0  0  0
    2.8209   -1.0700   -0.3175 H   0  0  0  0  0  0  0  0  0  0  0  0
  1  2  2  0
  2  3  1  0
  3  4  1  0
  4  5  1  0
  5  6  1  0
  6  7  1  0
  7  8  1  0
  6  4  1  0
  8  4  1  0
  2  9  1  0
  3 10  1  0
  3 11  1  0
  5 12  1  0
  5 13  1  0
  6 14  1  0
  7 15  1  0
  7 16  1  0
M  END
