
     RDKit          3D

 17 18  0  0  0  0  0  0  0  0999 V2000
   -2.7098   -0.0387    1.5410 O   0  0  0  0  0  0  0  0  0  0  0  0
   -2.2567   -0.2086    0.4288 C   0  0  0  0  0  0  0  0  0  0  0  0
   -1.5299    0.8620   -0.2460 C   0  0  0  0  0  0  0  0  0  0  0  0
   -0.0485    0.7438   -0.2191 C   0  0  0  0  0  0  0  0  0  0  0  0
    0.5332   -0.4876   -0.8466 C   0  0  0  0  0  0  0  0  0  0  0  0
    0.0998   -1.1733    0.2839 O   0  0  0  0  0  0  0  0  0  0  0  0
    0.6216   -0.0202    0.8479 C   0  0  0  0  0  0  0  0  0  0  0  0
    1.7814   -0.2122   -0.0833 C   0  0  0  0  0  0  0  0  0  0  0  0
    2.5816   -1.2949    0.2116 O   0  0  0  0  0  0  0  0  0  0  0  0
   -2.4052   -1.1665   -0.0457 H   0  0  0  0  0  0  0  0  0  0  0  0
   -1.8116    1.8916    0.1215 H   0  0  0  0  0  0  0  0  0  0  0  0
   -1.8450    0.8477   -1.3222 H   0  0  0  0  0  0  0  0  0  0  0  0
    0.4102    1.7189   -0.4857 H   0  0  0  0  0  0  0  0  0  0  0  0
    0.4167   -0.8050   -1.7967 H   0  0  0  0  0  0  0  0  0  0  0  0
    0.6801    0.1921    1.8358 H   0  0  0  0  0  0  0  0  0  0  0  0
    2.3135    0.6831   -0.4011 H   0  0  0  0  0  0  0  0  0  0  0  0
    3.1686   -1.5322   -0.5370 H   0  0  0  0  0  0  0  0  0  0  0  0
  1  2  2  0
  2  3  1  0
  3  4  1  0
  4  5  1  0
  5  6  1  0
  6  7  1  0
  7  8  1  0
  8  9  1  0
  7  4  1  0
  8  5  1  0
  2 10  1  0
  3 11  1  0
  3 12  1  0
  4 13  1  0
  5 14  1  0
  7 15  1  0
  8 16  1  0
  9 17  1  0
M  END
