
     RDKit          3D

 16 16  0  0  0  0  0  0  0  0999 V2000
    1.7536   -0.3610   -1.7704 O   0  0  0  0  0  0  0  0  0  0  0  0
    1.8891   -0.0824   -0.6062 C   0  0  0  0  0  0  0  0  0  0  0  0
    0.7252    0.0537    0.3332 C   0  0  0  0  0  0  0  0  0  0  0  0
    1.0937    0.3795    1.6315 O   0  0  0  0  0  0  0  0  0  0  0  0
   -0.2809    1.0277   -0.2424 C   0  0  0  0  0  0  0  0  0  0  0  0
   -1.3700    0.0454    0.1695 C   0  0  0  0  0  0  0  0  0  0  0  0
   -2.2743   -0.2785   -0.8141 O   0  0  0  0  0  0  0  0  0  0  0  0
   -0.2924   -1.0378    0.2463 C   0  0  0  0  0  0  0  0  0  0  0  0
    2.8826    0.0785   -0.2099 H   0  0  0  0  0  0  0  0  0  0  0  0
    1.6403   -0.3941    1.9626 H   0  0  0  0  0  0  0  0  0  0  0  0
   -0.2581    1.1162   -1.3310 H   0  0  0  0  0  0  0  0  0  0  0  0
   -0.3684    1.9928    0.2802 H   0  0  0  0  0  0  0  0  0  0  0  0
   -1.8623    0.2576    1.1205 H   0  0  0  0  0  0  0  0  0  0  0  0
   -2.5837    0.5349   -1.2802 H   0  0  0  0  0  0  0  0  0  0  0  0
   -0.2485   -1.6875   -0.6425 H   0  0  0  0  0  0  0  0  0  0  0  0
   -0.4458   -1.6451    1.1529 H   0  0  0  0  0  0  0  0  0  0  0  0
  1  2  2  0
  2  3  1  0
  3  4  1  0
  3  5  1  0
  5  6  1  0
  6  7  1  0
  6  8  1  0
  8  3  1  0
  2  9  1  0
  4 10  1  0
  5 11  1  0
  5 12  1  0
  6 13  1  0
  7 14  1  0
  8 15  1  0
  8 16  1  0
M  END
