
     RDKit          3D

 17 19  0  0  0  0  0  0  0  0999 V2000
    2.2097    0.8812   -1.5215 O   0  0  0  0  0  0  0  0  0  0  0  0
    1.8264    0.5887   -0.4082 C   0  0  0  0  0  0  0  0  0  0  0  0
    1.1969   -0.7137   -0.1375 C   0  0  0  0  0  0  0  0  0  0  0  0
    0.2191   -0.6001    0.9910 C   0  0  0  0  0  0  0  0  0  0  0  0
   -0.5365   -1.5925    0.3527 O   0  0  0  0  0  0  0  0  0  0  0  0
   -0.0866   -0.9992   -0.8517 C   0  0  0  0  0  0  0  0  0  0  0  0
   -0.8662    0.2883   -0.8351 C   0  0  0  0  0  0  0  0  0  0  0  0
   -1.9335    0.4931    0.2050 C   0  0  0  0  0  0  0  0  0  0  0  0
   -0.5401    0.6667    0.6547 C   0  0  0  0  0  0  0  0  0  0  0  0
    1.9511    1.3014    0.3999 H   0  0  0  0  0  0  0  0  0  0  0  0
    1.8664   -1.5882   -0.1262 H   0  0  0  0  0  0  0  0  0  0  0  0
    0.5335   -0.7633    1.9943 H   0  0  0  0  0  0  0  0  0  0  0  0
   -0.0918   -1.6087   -1.7276 H   0  0  0  0  0  0  0  0  0  0  0  0
   -0.7122    1.0622   -1.5791 H   0  0  0  0  0  0  0  0  0  0  0  0
   -2.5480    1.3903    0.0930 H   0  0  0  0  0  0  0  0  0  0  0  0
   -2.4410   -0.4447    0.5256 H   0  0  0  0  0  0  0  0  0  0  0  0
   -0.0472    1.6385    0.7467 H   0  0  0  0  0  0  0  0  0  0  0  0
  1  2  2  0
  2  3  1  0
  3  4  1  0
  4  5  1  0
  5  6  1  0
  6  7  1  0
  7  8  1  0
  8  9  1  0
  6  3  1  0
  9  7  1  0
  9  4  1  0
  2 10  1  0
  3 11  1  0
  4 12  1  0
  6 13  1  0
  7 14  1  0
  8 15  1  0
  8 16  1  0
  9 17  1  0
M  END
