
     RDKit          3D

 19 19  0  0  0  0  0  0  0  0999 V2000
   -2.9471    1.0514    0.5005 O   0  0  0  0  0  0  0  0  0  0  0  0
   -2.1721    0.1008    0.5641 C   0  0  0  0  0  0  0  0  0  0  0  0
   -1.2695   -0.2997   -0.5163 C   0  0  0  0  0  0  0  0  0  0  0  0
   -0.3769    0.8043   -1.0080 C   0  0  0  0  0  0  0  0  0  0  0  0
    0.8169    1.0431   -0.1302 C   0  0  0  0  0  0  0  0  0  0  0  0
    1.4677   -0.2624    0.3031 C   0  0  0  0  0  0  0  0  0  0  0  0
    1.9934   -0.9691   -0.7579 O   0  0  0  0  0  0  0  0  0  0  0  0
    0.3382   -1.1139    0.8855 C   0  0  0  0  0  0  0  0  0  0  0  0
   -0.5275   -1.3985   -0.1472 O   0  0  0  0  0  0  0  0  0  0  0  0
   -2.1801   -0.4520    1.4823 H   0  0  0  0  0  0  0  0  0  0  0  0
   -1.9179   -0.5993   -1.3910 H   0  0  0  0  0  0  0  0  0  0  0  0
   -0.9541    1.7662   -1.0414 H   0  0  0  0  0  0  0  0  0  0  0  0
   -0.0913    0.5648   -2.0526 H   0  0  0  0  0  0  0  0  0  0  0  0
    1.5606    1.6488   -0.6724 H   0  0  0  0  0  0  0  0  0  0  0  0
    0.4616    1.5253    0.8053 H   0  0  0  0  0  0  0  0  0  0  0  0
    2.1731   -0.0877    1.1188 H   0  0  0  0  0  0  0  0  0  0  0  0
    2.9481   -0.7819   -0.9227 H   0  0  0  0  0  0  0  0  0  0  0  0
   -0.1256   -0.5167    1.7027 H   0  0  0  0  0  0  0  0  0  0  0  0
    0.8025   -2.0233    1.2773 H   0  0  0  0  0  0  0  0  0  0  0  0
  1  2  2  0
  2  3  1  0
  3  4  1  0
  4  5  1  0
  5  6  1  0
  6  7  1  0
  6  8  1  0
  8  9  1  0
  9  3  1  0
  2 10  1  0
  3 11  1  0
  4 12  1  0
  4 13  1  0
  5 14  1  0
  5 15  1  0
  6 16  1  0
  7 17  1  0
  8 18  1  0
  8 19  1  0
M  END
