
     RDKit          3D

 17 18  0  0  0  0  0  0  0  0999 V2000
    1.8918   -2.2306    0.0797 O   0  0  0  0  0  0  0  0  0  0  0  0
    1.6076   -1.1807   -0.4492 C   0  0  0  0  0  0  0  0  0  0  0  0
    0.5464   -0.3413    0.0873 C   0  0  0  0  0  0  0  0  0  0  0  0
    0.8428    1.1632    0.0867 C   0  0  0  0  0  0  0  0  0  0  0  0
   -0.5923    1.6877    0.2260 C   0  0  0  0  0  0  0  0  0  0  0  0
   -1.2501    0.9196   -0.7073 O   0  0  0  0  0  0  0  0  0  0  0  0
   -0.7681   -0.3615   -0.6537 C   0  0  0  0  0  0  0  0  0  0  0  0
   -1.2679   -1.1615    0.5133 C   0  0  0  0  0  0  0  0  0  0  0  0
   -0.1142   -0.7860    1.2098 O   0  0  0  0  0  0  0  0  0  0  0  0
    2.1503   -0.8749   -1.3228 H   0  0  0  0  0  0  0  0  0  0  0  0
    1.4708    1.4627    0.9254 H   0  0  0  0  0  0  0  0  0  0  0  0
    1.2508    1.4107   -0.9123 H   0  0  0  0  0  0  0  0  0  0  0  0
   -0.5973    2.7522   -0.0102 H   0  0  0  0  0  0  0  0  0  0  0  0
   -0.9135    1.4519    1.2545 H   0  0  0  0  0  0  0  0  0  0  0  0
   -0.7475   -0.9180   -1.6129 H   0  0  0  0  0  0  0  0  0  0  0  0
   -2.2077   -0.7495    0.8944 H   0  0  0  0  0  0  0  0  0  0  0  0
   -1.3020   -2.2440    0.3914 H   0  0  0  0  0  0  0  0  0  0  0  0
  1  2  2  0
  2  3  1  0
  3  4  1  0
  4  5  1  0
  5  6  1  0
  6  7  1  0
  7  8  1  0
  8  9  1  0
  7  3  1  0
  9  3  1  0
  2 10  1  0
  4 11  1  0
  4 12  1  0
  5 13  1  0
  5 14  1  0
  7 15  1  0
  8 16  1  0
  8 17  1  0
M  END
