
     RDKit          3D

 17 19  0  0  0  0  0  0  0  0999 V2000
    3.2329   -0.5065   -0.8052 O   0  0  0  0  0  0  0  0  0  0  0  0
    2.4773   -0.1578    0.0811 C   0  0  0  0  0  0  0  0  0  0  0  0
    1.0350   -0.0793   -0.1743 C   0  0  0  0  0  0  0  0  0  0  0  0
    0.1866   -0.5826    0.9881 C   0  0  0  0  0  0  0  0  0  0  0  0
   -1.1674    0.0191    0.8109 C   0  0  0  0  0  0  0  0  0  0  0  0
   -1.9306   -0.4119   -0.3844 C   0  0  0  0  0  0  0  0  0  0  0  0
   -1.1122    0.8580   -0.3931 C   0  0  0  0  0  0  0  0  0  0  0  0
    0.2987    0.8095   -0.9002 C   0  0  0  0  0  0  0  0  0  0  0  0
    0.6471   -0.4259   -1.4630 O   0  0  0  0  0  0  0  0  0  0  0  0
    2.8623    0.0923    1.0487 H   0  0  0  0  0  0  0  0  0  0  0  0
    0.6666   -0.2005    1.9057 H   0  0  0  0  0  0  0  0  0  0  0  0
    0.0994   -1.6823    0.9863 H   0  0  0  0  0  0  0  0  0  0  0  0
   -1.7668    0.3148    1.7083 H   0  0  0  0  0  0  0  0  0  0  0  0
   -3.0230   -0.3524   -0.4295 H   0  0  0  0  0  0  0  0  0  0  0  0
   -1.5051   -1.2016   -1.0422 H   0  0  0  0  0  0  0  0  0  0  0  0
   -1.6873    1.7858   -0.5149 H   0  0  0  0  0  0  0  0  0  0  0  0
    0.6863    1.7214   -1.4223 H   0  0  0  0  0  0  0  0  0  0  0  0
  1  2  2  0
  2  3  1  0
  3  4  1  0
  4  5  1  0
  5  6  1  0
  6  7  1  0
  7  8  1  0
  8  9  1  0
  8  3  1  0
  9  3  1  0
  7  5  1  0
  2 10  1  0
  4 11  1  0
  4 12  1  0
  5 13  1  0
  6 14  1  0
  6 15  1  0
  7 16  1  0
  8 17  1  0
M  END
