
     RDKit          3D

 15 14  0  0  0  0  0  0  0  0999 V2000
    3.9740    0.8867    2.8576 O   0  0  0  0  0  0  0  0  0  0  0  0
    3.1763    0.0505    2.3094 C   0  0  0  0  0  0  0  0  0  0  0  0
    2.4725    0.1756    1.1505 C   0  0  0  0  0  0  0  0  0  0  0  0
    1.7981    0.3042    0.0230 C   0  0  0  0  0  0  0  0  0  0  0  0
    1.0673    0.4193   -1.1941 C   0  0  0  0  0  0  0  0  0  0  0  0
   -0.3131    0.2598   -0.9909 C   0  0  0  0  0  0  0  0  0  0  0  0
   -1.5151    0.1023   -0.8225 C   0  0  0  0  0  0  0  0  0  0  0  0
   -3.0074   -0.1148   -0.6055 C   0  0  0  0  0  0  0  0  0  0  0  0
   -3.4154   -0.6609   -1.8331 O   0  0  0  0  0  0  0  0  0  0  0  0
    3.0709   -0.9097    2.9019 H   0  0  0  0  0  0  0  0  0  0  0  0
    1.2780    1.4890   -1.6315 H   0  0  0  0  0  0  0  0  0  0  0  0
    1.4818   -0.2687   -2.0139 H   0  0  0  0  0  0  0  0  0  0  0  0
   -3.1130   -0.8780    0.1768 H   0  0  0  0  0  0  0  0  0  0  0  0
   -3.5221    0.8038   -0.3776 H   0  0  0  0  0  0  0  0  0  0  0  0
   -3.4329   -1.6590   -1.6871 H   0  0  0  0  0  0  0  0  0  0  0  0
  1  2  2  0
  2  3  1  0
  3  4  3  0
  4  5  1  0
  5  6  1  0
  6  7  3  0
  7  8  1  0
  8  9  1  0
  2 10  1  0
  5 11  1  0
  5 12  1  0
  8 13  1  0
  8 14  1  0
  9 15  1  0
M  END
