
     RDKit          3D

 16 16  0  0  0  0  0  0  0  0999 V2000
    3.9823   -0.6558    0.6836 O   0  0  0  0  0  0  0  0  0  0  0  0
    3.2616    0.1956    1.2612 C   0  0  0  0  0  0  0  0  0  0  0  0
    1.8362    0.1269    1.0288 C   0  0  0  0  0  0  0  0  0  0  0  0
    0.6194    0.0851    0.8434 C   0  0  0  0  0  0  0  0  0  0  0  0
   -0.8175    0.0293    0.5995 C   0  0  0  0  0  0  0  0  0  0  0  0
   -1.1697    1.0009   -0.5139 C   0  0  0  0  0  0  0  0  0  0  0  0
   -1.1504   -0.1889   -1.4683 C   0  0  0  0  0  0  0  0  0  0  0  0
   -1.2820   -1.1206   -0.2808 C   0  0  0  0  0  0  0  0  0  0  0  0
    3.6822    0.9624    1.9157 H   0  0  0  0  0  0  0  0  0  0  0  0
   -1.4167    0.2414    1.4885 H   0  0  0  0  0  0  0  0  0  0  0  0
   -0.3901    1.7615   -0.7559 H   0  0  0  0  0  0  0  0  0  0  0  0
   -2.1678    1.4604   -0.4517 H   0  0  0  0  0  0  0  0  0  0  0  0
   -0.1296   -0.2834   -1.9022 H   0  0  0  0  0  0  0  0  0  0  0  0
   -1.9929   -0.2634   -2.1703 H   0  0  0  0  0  0  0  0  0  0  0  0
   -2.3078   -1.3982    0.0245 H   0  0  0  0  0  0  0  0  0  0  0  0
   -0.5572   -1.9530   -0.3020 H   0  0  0  0  0  0  0  0  0  0  0  0
  1  2  2  0
  2  3  1  0
  3  4  3  0
  4  5  1  0
  5  6  1  0
  6  7  1  0
  7  8  1  0
  8  5  1  0
  2  9  1  0
  5 10  1  0
  6 11  1  0
  6 12  1  0
  7 13  1  0
  7 14  1  0
  8 15  1  0
  8 16  1  0
M  END
