
     RDKit          3D

 17 17  0  0  0  0  0  0  0  0999 V2000
   -2.6778    0.6825    0.0482 O   0  0  0  0  0  0  0  0  0  0  0  0
   -1.7361    1.4001   -0.0857 C   0  0  0  0  0  0  0  0  0  0  0  0
   -0.3984    1.0109    0.3819 C   0  0  0  0  0  0  0  0  0  0  0  0
   -0.2231   -0.0062    1.4617 C   0  0  0  0  0  0  0  0  0  0  0  0
    0.1371   -0.3006   -0.0155 C   0  0  0  0  0  0  0  0  0  0  0  0
   -0.8205   -1.3043   -0.6851 C   0  0  0  0  0  0  0  0  0  0  0  0
   -1.7520   -0.9946   -1.3679 O   0  0  0  0  0  0  0  0  0  0  0  0
    1.5434   -0.6269   -0.3125 C   0  0  0  0  0  0  0  0  0  0  0  0
    1.9341    0.1128   -1.4712 O   0  0  0  0  0  0  0  0  0  0  0  0
   -1.8944    2.3649   -0.5685 H   0  0  0  0  0  0  0  0  0  0  0  0
    0.3991    1.8347    0.3242 H   0  0  0  0  0  0  0  0  0  0  0  0
    0.6519    0.0594    2.1414 H   0  0  0  0  0  0  0  0  0  0  0  0
   -1.0520   -0.5738    1.9032 H   0  0  0  0  0  0  0  0  0  0  0  0
   -0.5743   -2.3640   -0.4791 H   0  0  0  0  0  0  0  0  0  0  0  0
    2.2476   -0.4030    0.5050 H   0  0  0  0  0  0  0  0  0  0  0  0
    1.6732   -1.7001   -0.5717 H   0  0  0  0  0  0  0  0  0  0  0  0
    2.5423    0.8082   -1.2084 H   0  0  0  0  0  0  0  0  0  0  0  0
  1  2  2  0
  2  3  1  0
  3  4  1  0
  4  5  1  0
  5  6  1  0
  6  7  2  0
  5  8  1  0
  8  9  1  0
  5  3  1  0
  2 10  1  0
  3 11  1  0
  4 12  1  0
  4 13  1  0
  6 14  1  0
  8 15  1  0
  8 16  1  0
  9 17  1  0
M  END
