
     RDKit          3D

 18 18  0  0  0  0  0  0  0  0999 V2000
    3.4149    0.0636   -0.0412 O   0  0  0  0  0  0  0  0  0  0  0  0
    2.2086    0.1249    0.1299 C   0  0  0  0  0  0  0  0  0  0  0  0
    1.3358   -0.4206   -0.9203 C   0  0  0  0  0  0  0  0  0  0  0  0
   -0.1222   -0.2914   -0.6068 C   0  0  0  0  0  0  0  0  0  0  0  0
   -0.5371   -0.9943    0.6454 C   0  0  0  0  0  0  0  0  0  0  0  0
   -1.8287   -0.3234    0.9410 C   0  0  0  0  0  0  0  0  0  0  0  0
   -1.8370    0.8882    0.4109 C   0  0  0  0  0  0  0  0  0  0  0  0
   -0.5270    1.1370   -0.2985 C   0  0  0  0  0  0  0  0  0  0  0  0
    1.8050    0.5610    1.0142 H   0  0  0  0  0  0  0  0  0  0  0  0
    1.5029    0.1150   -1.8945 H   0  0  0  0  0  0  0  0  0  0  0  0
    1.5367   -1.4865   -1.1381 H   0  0  0  0  0  0  0  0  0  0  0  0
   -0.7033   -0.6992   -1.4417 H   0  0  0  0  0  0  0  0  0  0  0  0
   -0.6404   -2.0894    0.5268 H   0  0  0  0  0  0  0  0  0  0  0  0
    0.1761   -0.7862    1.4947 H   0  0  0  0  0  0  0  0  0  0  0  0
   -2.6340   -0.7621    1.5029 H   0  0  0  0  0  0  0  0  0  0  0  0
   -2.6153    1.6374    0.4371 H   0  0  0  0  0  0  0  0  0  0  0  0
   -0.6720    1.7414   -1.2029 H   0  0  0  0  0  0  0  0  0  0  0  0
    0.1369    1.5845    0.4410 H   0  0  0  0  0  0  0  0  0  0  0  0
  1  2  2  0
  2  3  1  0
  3  4  1  0
  4  5  1  0
  5  6  1  0
  6  7  2  0
  7  8  1  0
  8  4  1  0
  2  9  1  0
  3 10  1  0
  3 11  1  0
  4 12  1  0
  5 13  1  0
  5 14  1  0
  6 15  1  0
  7 16  1  0
  8 17  1  0
  8 18  1  0
M  END
