
     RDKit          3D

 16 15  0  0  0  0  0  0  0  0999 V2000
    2.8095    1.1494   -0.2931 O   0  0  0  0  0  0  0  0  0  0  0  0
    1.6857    0.9900   -0.7369 C   0  0  0  0  0  0  0  0  0  0  0  0
    1.0539   -0.3457   -0.8095 C   0  0  0  0  0  0  0  0  0  0  0  0
    1.9555   -1.2766   -0.3030 O   0  0  0  0  0  0  0  0  0  0  0  0
   -0.2090   -0.4400    0.0035 C   0  0  0  0  0  0  0  0  0  0  0  0
   -0.7056   -1.7326   -0.1204 O   0  0  0  0  0  0  0  0  0  0  0  0
   -1.2815    0.5062   -0.4829 C   0  0  0  0  0  0  0  0  0  0  0  0
   -2.4048    0.3127    0.3211 O   0  0  0  0  0  0  0  0  0  0  0  0
    1.1519    1.8501   -1.0806 H   0  0  0  0  0  0  0  0  0  0  0  0
    0.8911   -0.6115   -1.8745 H   0  0  0  0  0  0  0  0  0  0  0  0
    2.1366   -1.0660    0.6565 H   0  0  0  0  0  0  0  0  0  0  0  0
    0.0141   -0.2178    1.0471 H   0  0  0  0  0  0  0  0  0  0  0  0
   -1.3461   -1.8612    0.6484 H   0  0  0  0  0  0  0  0  0  0  0  0
   -1.5961    0.2753   -1.5258 H   0  0  0  0  0  0  0  0  0  0  0  0
   -0.9957    1.5676   -0.3908 H   0  0  0  0  0  0  0  0  0  0  0  0
   -3.1595    0.8999    0.0666 H   0  0  0  0  0  0  0  0  0  0  0  0
  1  2  2  0
  2  3  1  0
  3  4  1  0
  3  5  1  0
  5  6  1  0
  5  7  1  0
  7  8  1  0
  2  9  1  0
  3 10  1  0
  4 11  1  0
  5 12  1  0
  6 13  1  0
  7 14  1  0
  7 15  1  0
  8 16  1  0
M  END
