
     RDKit          3D

 13 13  0  0  0  0  0  0  0  0999 V2000
    2.4057    1.2143   -0.2674 O   0  0  0  0  0  0  0  0  0  0  0  0
    1.6574    0.3155   -0.5858 C   0  0  0  0  0  0  0  0  0  0  0  0
    0.5685   -0.0579    0.3099 C   0  0  0  0  0  0  0  0  0  0  0  0
   -0.6276    0.9081    0.3094 C   0  0  0  0  0  0  0  0  0  0  0  0
   -1.4473   -0.2980    0.5351 C   0  0  0  0  0  0  0  0  0  0  0  0
   -2.4632   -0.5620    1.1067 O   0  0  0  0  0  0  0  0  0  0  0  0
   -0.4455   -1.0302   -0.2643 C   0  0  0  0  0  0  0  0  0  0  0  0
    1.8081   -0.1916   -1.5222 H   0  0  0  0  0  0  0  0  0  0  0  0
    0.8415   -0.3178    1.3598 H   0  0  0  0  0  0  0  0  0  0  0  0
   -0.6050    1.6606    1.0960 H   0  0  0  0  0  0  0  0  0  0  0  0
   -0.7964    1.2810   -0.7324 H   0  0  0  0  0  0  0  0  0  0  0  0
   -0.2810   -2.0865    0.0036 H   0  0  0  0  0  0  0  0  0  0  0  0
   -0.6153   -0.8354   -1.3483 H   0  0  0  0  0  0  0  0  0  0  0  0
  1  2  2  0
  2  3  1  0
  3  4  1  0
  4  5  1  0
  5  6  2  0
  5  7  1  0
  7  3  1  0
  2  8  1  0
  3  9  1  0
  4 10  1  0
  4 11  1  0
  7 12  1  0
  7 13  1  0
M  END
