
     RDKit          3D

 13 13  0  0  0  0  0  0  0  0999 V2000
    1.4186   -1.6268    1.0687 O   0  0  0  0  0  0  0  0  0  0  0  0
    1.3910   -0.5876    0.4625 C   0  0  0  0  0  0  0  0  0  0  0  0
    0.1021   -0.1266   -0.0988 C   0  0  0  0  0  0  0  0  0  0  0  0
   -0.6862   -1.1287   -0.8361 C   0  0  0  0  0  0  0  0  0  0  0  0
   -0.0960   -1.8606   -1.6138 O   0  0  0  0  0  0  0  0  0  0  0  0
   -0.7738    0.6471    0.8924 C   0  0  0  0  0  0  0  0  0  0  0  0
   -1.1759    1.3750   -0.2788 O   0  0  0  0  0  0  0  0  0  0  0  0
    0.1252    1.2154   -0.7265 C   0  0  0  0  0  0  0  0  0  0  0  0
    0.8736    1.9761   -1.3769 O   0  0  0  0  0  0  0  0  0  0  0  0
    2.3141   -0.0150    0.3433 H   0  0  0  0  0  0  0  0  0  0  0  0
   -1.7438   -1.2542   -0.7317 H   0  0  0  0  0  0  0  0  0  0  0  0
   -1.5476    0.0441    1.3558 H   0  0  0  0  0  0  0  0  0  0  0  0
   -0.2012    1.3419    1.5400 H   0  0  0  0  0  0  0  0  0  0  0  0
  1  2  2  0
  2  3  1  0
  3  4  1  0
  4  5  2  0
  3  6  1  0
  6  7  1  0
  7  8  1  0
  8  9  2  0
  8  3  1  0
  2 10  1  0
  4 11  1  0
  6 12  1  0
  6 13  1  0
M  END
