
     RDKit          3D

 17 17  0  0  0  0  0  0  0  0999 V2000
    2.1721   -1.3203   -0.8571 O   0  0  0  0  0  0  0  0  0  0  0  0
    2.0728   -0.1789   -0.4414 C   0  0  0  0  0  0  0  0  0  0  0  0
    0.8552    0.2982    0.2596 C   0  0  0  0  0  0  0  0  0  0  0  0
   -0.0944    1.0158   -0.6717 C   0  0  0  0  0  0  0  0  0  0  0  0
   -1.4413    0.6859   -0.0302 C   0  0  0  0  0  0  0  0  0  0  0  0
   -1.2453   -0.8260    0.1329 C   0  0  0  0  0  0  0  0  0  0  0  0
    0.0773   -0.8511    0.8690 C   0  0  0  0  0  0  0  0  0  0  0  0
    2.9233    0.4700   -0.6116 H   0  0  0  0  0  0  0  0  0  0  0  0
    1.1438    1.0411    1.0456 H   0  0  0  0  0  0  0  0  0  0  0  0
    0.0878    2.0991   -0.7140 H   0  0  0  0  0  0  0  0  0  0  0  0
   -0.1280    0.5609   -1.6850 H   0  0  0  0  0  0  0  0  0  0  0  0
   -1.5169    1.0883    0.9963 H   0  0  0  0  0  0  0  0  0  0  0  0
   -2.2869    0.9270   -0.6785 H   0  0  0  0  0  0  0  0  0  0  0  0
   -1.0598   -1.2185   -0.8875 H   0  0  0  0  0  0  0  0  0  0  0  0
   -2.0602   -1.3022    0.6645 H   0  0  0  0  0  0  0  0  0  0  0  0
   -0.0972   -0.6776    1.9384 H   0  0  0  0  0  0  0  0  0  0  0  0
    0.5978   -1.8118    0.6708 H   0  0  0  0  0  0  0  0  0  0  0  0
  1  2  2  0
  2  3  1  0
  3  4  1  0
  4  5  1  0
  5  6  1  0
  6  7  1  0
  7  3  1  0
  2  8  1  0
  3  9  1  0
  4 10  1  0
  4 11  1  0
  5 12  1  0
  5 13  1  0
  6 14  1  0
  6 15  1  0
  7 16  1  0
  7 17  1  0
M  END
