
     RDKit          3D

 15 16  0  0  0  0  0  0  0  0999 V2000
    2.4641   -1.3320    0.3114 O   0  0  0  0  0  0  0  0  0  0  0  0
    1.6228   -0.7859   -0.4195 C   0  0  0  0  0  0  0  0  0  0  0  0
    0.4822   -0.2402    0.0773 C   0  0  0  0  0  0  0  0  0  0  0  0
    0.1080   -0.2152    1.4182 O   0  0  0  0  0  0  0  0  0  0  0  0
   -0.9657    0.4261    0.8263 C   0  0  0  0  0  0  0  0  0  0  0  0
    0.0385    1.1829    0.0041 C   0  0  0  0  0  0  0  0  0  0  0  0
    0.8515    2.0485    0.6999 O   0  0  0  0  0  0  0  0  0  0  0  0
   -0.9221   -0.6379   -0.2309 C   0  0  0  0  0  0  0  0  0  0  0  0
   -1.1902   -1.9182    0.1852 O   0  0  0  0  0  0  0  0  0  0  0  0
    1.8881   -0.7903   -1.4719 H   0  0  0  0  0  0  0  0  0  0  0  0
   -1.7833    0.8014    1.2773 H   0  0  0  0  0  0  0  0  0  0  0  0
   -0.3615    1.5333   -0.9548 H   0  0  0  0  0  0  0  0  0  0  0  0
    0.3241    2.7410    1.1908 H   0  0  0  0  0  0  0  0  0  0  0  0
   -1.3447   -0.3134   -1.1825 H   0  0  0  0  0  0  0  0  0  0  0  0
   -1.2117   -2.5001   -0.6179 H   0  0  0  0  0  0  0  0  0  0  0  0
  1  2  2  0
  2  3  1  0
  3  4  1  0
  4  5  1  0
  5  6  1  0
  6  7  1  0
  5  8  1  0
  8  9  1  0
  6  3  1  0
  8  3  1  0
  2 10  1  0
  5 11  1  0
  6 12  1  0
  7 13  1  0
  8 14  1  0
  9 15  1  0
M  END
