
     RDKit          3D

 17 18  0  0  0  0  0  0  0  0999 V2000
   -2.9564    0.6718    0.0025 O   0  0  0  0  0  0  0  0  0  0  0  0
   -1.7852    0.8577   -0.2465 C   0  0  0  0  0  0  0  0  0  0  0  0
   -0.8843   -0.3188   -0.2160 C   0  0  0  0  0  0  0  0  0  0  0  0
    0.5515   -0.0022   -0.5361 C   0  0  0  0  0  0  0  0  0  0  0  0
    0.8402    0.1322   -1.9050 O   0  0  0  0  0  0  0  0  0  0  0  0
    1.6603   -0.3588    0.3420 C   0  0  0  0  0  0  0  0  0  0  0  0
    1.1680    1.0567    0.3973 C   0  0  0  0  0  0  0  0  0  0  0  0
   -1.2053   -1.4170    0.7058 C   0  0  0  0  0  0  0  0  0  0  0  0
   -1.4596   -1.4795   -0.7131 O   0  0  0  0  0  0  0  0  0  0  0  0
   -1.4582    1.8564   -0.4754 H   0  0  0  0  0  0  0  0  0  0  0  0
    1.6386    0.7103   -2.0548 H   0  0  0  0  0  0  0  0  0  0  0  0
    2.6593   -0.5511   -0.1107 H   0  0  0  0  0  0  0  0  0  0  0  0
    1.5322   -0.9100    1.3015 H   0  0  0  0  0  0  0  0  0  0  0  0
    1.7525    1.8659   -0.0795 H   0  0  0  0  0  0  0  0  0  0  0  0
    0.5736    1.3857    1.2666 H   0  0  0  0  0  0  0  0  0  0  0  0
   -0.4843   -2.1814    1.0019 H   0  0  0  0  0  0  0  0  0  0  0  0
   -2.1429   -1.3179    1.3196 H   0  0  0  0  0  0  0  0  0  0  0  0
  1  2  2  0
  2  3  1  0
  3  4  1  0
  4  5  1  0
  4  6  1  0
  6  7  1  0
  3  8  1  0
  8  9  1  0
  9  3  1  0
  7  4  1  0
  2 10  1  0
  5 11  1  0
  6 12  1  0
  6 13  1  0
  7 14  1  0
  7 15  1  0
  8 16  1  0
  8 17  1  0
M  END
