
     RDKit          3D

 17 19  0  0  0  0  0  0  0  0999 V2000
   -2.3471   -0.5142    1.8022 O   0  0  0  0  0  0  0  0  0  0  0  0
   -2.0013   -0.6367    0.6381 C   0  0  0  0  0  0  0  0  0  0  0  0
   -1.2289    0.3533   -0.1071 C   0  0  0  0  0  0  0  0  0  0  0  0
   -0.0477    0.9702    0.6552 C   0  0  0  0  0  0  0  0  0  0  0  0
    0.5946    0.0182    1.4353 O   0  0  0  0  0  0  0  0  0  0  0  0
    1.5174   -0.6466    0.6782 C   0  0  0  0  0  0  0  0  0  0  0  0
    1.1858   -0.3472   -0.7804 C   0  0  0  0  0  0  0  0  0  0  0  0
   -0.2445   -0.1414   -1.1141 C   0  0  0  0  0  0  0  0  0  0  0  0
    0.6372    1.0000   -0.6693 C   0  0  0  0  0  0  0  0  0  0  0  0
   -2.2983   -1.5517    0.1403 H   0  0  0  0  0  0  0  0  0  0  0  0
   -1.8332    1.1923   -0.5538 H   0  0  0  0  0  0  0  0  0  0  0  0
   -0.2556    1.9278    1.1270 H   0  0  0  0  0  0  0  0  0  0  0  0
    1.5923   -1.7312    0.8725 H   0  0  0  0  0  0  0  0  0  0  0  0
    2.5419   -0.2028    0.8469 H   0  0  0  0  0  0  0  0  0  0  0  0
    1.8951   -0.5591   -1.5651 H   0  0  0  0  0  0  0  0  0  0  0  0
   -0.5432   -0.2497   -2.1532 H   0  0  0  0  0  0  0  0  0  0  0  0
    0.8355    1.8579   -1.2526 H   0  0  0  0  0  0  0  0  0  0  0  0
  1  2  2  0
  2  3  1  0
  3  4  1  0
  4  5  1  0
  5  6  1  0
  6  7  1  0
  7  8  1  0
  8  9  1  0
  8  3  1  0
  9  4  1  0
  9  7  1  0
  2 10  1  0
  3 11  1  0
  4 12  1  0
  6 13  1  0
  6 14  1  0
  7 15  1  0
  8 16  1  0
  9 17  1  0
M  END
