
     RDKit          3D

 19 19  0  0  0  0  0  0  0  0999 V2000
   -2.8065   -1.1691    1.0022 O   0  0  0  0  0  0  0  0  0  0  0  0
   -1.8068   -0.4994    0.8116 C   0  0  0  0  0  0  0  0  0  0  0  0
   -1.2189   -0.2223   -0.5252 C   0  0  0  0  0  0  0  0  0  0  0  0
   -0.8552    1.2106   -0.6782 C   0  0  0  0  0  0  0  0  0  0  0  0
    0.2551    1.7920   -0.3209 C   0  0  0  0  0  0  0  0  0  0  0  0
    1.4668    1.2575    0.3231 C   0  0  0  0  0  0  0  0  0  0  0  0
    1.7408    0.0125    0.6281 C   0  0  0  0  0  0  0  0  0  0  0  0
    0.9033   -1.1880    0.4057 C   0  0  0  0  0  0  0  0  0  0  0  0
    0.0081   -1.0591   -0.7984 C   0  0  0  0  0  0  0  0  0  0  0  0
   -1.3111   -0.0758    1.6766 H   0  0  0  0  0  0  0  0  0  0  0  0
   -1.9919   -0.5304   -1.2764 H   0  0  0  0  0  0  0  0  0  0  0  0
   -1.6249    1.8109   -1.1440 H   0  0  0  0  0  0  0  0  0  0  0  0
    0.3076    2.8548   -0.5291 H   0  0  0  0  0  0  0  0  0  0  0  0
    2.2004    2.0225    0.5585 H   0  0  0  0  0  0  0  0  0  0  0  0
    2.6797   -0.1797    1.0958 H   0  0  0  0  0  0  0  0  0  0  0  0
    0.2242   -1.3628    1.2881 H   0  0  0  0  0  0  0  0  0  0  0  0
    1.5737   -2.0522    0.2758 H   0  0  0  0  0  0  0  0  0  0  0  0
   -0.2903   -2.0581   -1.1445 H   0  0  0  0  0  0  0  0  0  0  0  0
    0.5457   -0.5640   -1.6490 H   0  0  0  0  0  0  0  0  0  0  0  0
  1  2  2  0
  2  3  1  0
  3  4  1  0
  4  5  2  0
  5  6  1  0
  6  7  2  0
  7  8  1  0
  8  9  1  0
  9  3  1  0
  2 10  1  0
  3 11  1  0
  4 12  1  0
  5 13  1  0
  6 14  1  0
  7 15  1  0
  8 16  1  0
  8 17  1  0
  9 18  1  0
  9 19  1  0
M  END
