
     RDKit          3D

 17 19  0  0  0  0  0  0  0  0999 V2000
    1.4342    0.0802   -2.0885 O   0  0  0  0  0  0  0  0  0  0  0  0
    1.5981   -0.3341   -0.9816 C   0  0  0  0  0  0  0  0  0  0  0  0
    1.0378    0.3513    0.1963 C   0  0  0  0  0  0  0  0  0  0  0  0
    1.3160   -0.3348    1.4133 C   0  0  0  0  0  0  0  0  0  0  0  0
   -0.0521   -0.3118    1.0894 C   0  0  0  0  0  0  0  0  0  0  0  0
   -0.9263   -0.5659   -0.0630 C   0  0  0  0  0  0  0  0  0  0  0  0
   -2.1060    0.4547   -0.2569 C   0  0  0  0  0  0  0  0  0  0  0  0
   -0.7855    0.7731   -0.8270 C   0  0  0  0  0  0  0  0  0  0  0  0
    0.2547    1.3935   -0.1427 O   0  0  0  0  0  0  0  0  0  0  0  0
    2.1929   -1.2554   -0.9170 H   0  0  0  0  0  0  0  0  0  0  0  0
    1.7523    0.3122    2.2297 H   0  0  0  0  0  0  0  0  0  0  0  0
    1.8329   -1.3048    1.4226 H   0  0  0  0  0  0  0  0  0  0  0  0
   -0.6170    0.3911    1.8048 H   0  0  0  0  0  0  0  0  0  0  0  0
   -1.0007   -1.4859   -0.6274 H   0  0  0  0  0  0  0  0  0  0  0  0
   -2.8764    0.1586   -0.9629 H   0  0  0  0  0  0  0  0  0  0  0  0
   -2.4036    0.9969    0.6495 H   0  0  0  0  0  0  0  0  0  0  0  0
   -0.6512    0.6810   -1.9384 H   0  0  0  0  0  0  0  0  0  0  0  0
  1  2  2  0
  2  3  1  0
  3  4  1  0
  4  5  1  0
  5  6  1  0
  6  7  1  0
  7  8  1  0
  8  9  1  0
  5  3  1  0
  8  6  1  0
  9  3  1  0
  2 10  1  0
  4 11  1  0
  4 12  1  0
  5 13  1  0
  6 14  1  0
  7 15  1  0
  7 16  1  0
  8 17  1  0
M  END
