
     RDKit          3D

 17 18  0  0  0  0  0  0  0  0999 V2000
    4.3755   -0.7384    1.9194 O   0  0  0  0  0  0  0  0  0  0  0  0
    4.0402   -0.6326    0.7109 C   0  0  0  0  0  0  0  0  0  0  0  0
    2.6993   -0.3145    0.3033 C   0  0  0  0  0  0  0  0  0  0  0  0
    1.5535   -0.0560   -0.0343 C   0  0  0  0  0  0  0  0  0  0  0  0
    0.1858    0.2767   -0.4370 C   0  0  0  0  0  0  0  0  0  0  0  0
   -0.7359    0.6170    0.6859 C   0  0  0  0  0  0  0  0  0  0  0  0
   -2.1791    0.9133    0.4500 C   0  0  0  0  0  0  0  0  0  0  0  0
   -2.2930   -0.2110   -0.5233 C   0  0  0  0  0  0  0  0  0  0  0  0
   -0.9106   -0.6627   -0.1220 C   0  0  0  0  0  0  0  0  0  0  0  0
    4.8387   -0.7988   -0.0270 H   0  0  0  0  0  0  0  0  0  0  0  0
    0.0641    0.8251   -1.4173 H   0  0  0  0  0  0  0  0  0  0  0  0
   -0.3520    0.5321    1.7286 H   0  0  0  0  0  0  0  0  0  0  0  0
   -2.3700    1.9281    0.0641 H   0  0  0  0  0  0  0  0  0  0  0  0
   -2.7771    0.6875    1.3765 H   0  0  0  0  0  0  0  0  0  0  0  0
   -2.2688    0.1793   -1.5665 H   0  0  0  0  0  0  0  0  0  0  0  0
   -3.1149   -0.9186   -0.2990 H   0  0  0  0  0  0  0  0  0  0  0  0
   -0.7557   -1.6264    0.3764 H   0  0  0  0  0  0  0  0  0  0  0  0
  1  2  2  0
  2  3  1  0
  3  4  3  0
  4  5  1  0
  5  6  1  0
  6  7  1  0
  7  8  1  0
  8  9  1  0
  9  5  1  0
  9  6  1  0
  2 10  1  0
  5 11  1  0
  6 12  1  0
  7 13  1  0
  7 14  1  0
  8 15  1  0
  8 16  1  0
  9 17  1  0
M  END
