
     RDKit          3D

 17 18  0  0  0  0  0  0  0  0999 V2000
    2.7552   -0.1014   -1.3299 O   0  0  0  0  0  0  0  0  0  0  0  0
    2.1905   -0.2823   -0.2620 C   0  0  0  0  0  0  0  0  0  0  0  0
    0.9172    0.4264   -0.0016 C   0  0  0  0  0  0  0  0  0  0  0  0
    0.0413   -0.3226    0.9957 C   0  0  0  0  0  0  0  0  0  0  0  0
   -1.2443    0.4668    0.9740 C   0  0  0  0  0  0  0  0  0  0  0  0
   -1.3449    0.6919   -0.5473 C   0  0  0  0  0  0  0  0  0  0  0  0
   -0.1432   -0.0818   -0.9827 C   0  0  0  0  0  0  0  0  0  0  0  0
   -0.2005   -1.2842   -0.1108 C   0  0  0  0  0  0  0  0  0  0  0  0
   -0.3690   -2.4552   -0.2985 O   0  0  0  0  0  0  0  0  0  0  0  0
    2.6275   -0.9547    0.4741 H   0  0  0  0  0  0  0  0  0  0  0  0
    0.9604    1.5070    0.1201 H   0  0  0  0  0  0  0  0  0  0  0  0
    0.4596   -0.6490    1.9060 H   0  0  0  0  0  0  0  0  0  0  0  0
   -2.0526   -0.2146    1.2710 H   0  0  0  0  0  0  0  0  0  0  0  0
   -1.2051    1.4036    1.5233 H   0  0  0  0  0  0  0  0  0  0  0  0
   -2.3035    0.2718   -0.9286 H   0  0  0  0  0  0  0  0  0  0  0  0
   -1.2073    1.7541   -0.8032 H   0  0  0  0  0  0  0  0  0  0  0  0
    0.1189   -0.1758   -1.9998 H   0  0  0  0  0  0  0  0  0  0  0  0
  1  2  2  0
  2  3  1  0
  3  4  1  0
  4  5  1  0
  5  6  1  0
  6  7  1  0
  7  8  1  0
  8  9  2  0
  7  3  1  0
  8  4  1  0
  2 10  1  0
  3 11  1  0
  4 12  1  0
  5 13  1  0
  5 14  1  0
  6 15  1  0
  6 16  1  0
  7 17  1  0
M  END
