
     RDKit          3D

 19 19  0  0  0  0  0  0  0  0999 V2000
   -0.8379    3.1348    1.2681 O   0  0  0  0  0  0  0  0  0  0  0  0
   -0.2306    2.4795    0.3986 C   0  0  0  0  0  0  0  0  0  0  0  0
   -0.4476    1.0140    0.2561 C   0  0  0  0  0  0  0  0  0  0  0  0
   -1.2612    0.2853    0.9924 C   0  0  0  0  0  0  0  0  0  0  0  0
   -1.2530   -1.1487    0.5983 C   0  0  0  0  0  0  0  0  0  0  0  0
   -0.7331   -1.0489   -0.8278 C   0  0  0  0  0  0  0  0  0  0  0  0
    0.2116    0.1214   -0.7172 C   0  0  0  0  0  0  0  0  0  0  0  0
    1.5258   -0.3785   -0.1156 C   0  0  0  0  0  0  0  0  0  0  0  0
    2.1850   -1.2248   -0.9969 O   0  0  0  0  0  0  0  0  0  0  0  0
    0.4514    2.9987   -0.2431 H   0  0  0  0  0  0  0  0  0  0  0  0
   -1.8621    0.7360    1.8017 H   0  0  0  0  0  0  0  0  0  0  0  0
   -2.3110   -1.4981    0.6071 H   0  0  0  0  0  0  0  0  0  0  0  0
   -0.6410   -1.7790    1.2404 H   0  0  0  0  0  0  0  0  0  0  0  0
   -1.5751   -0.7369   -1.4791 H   0  0  0  0  0  0  0  0  0  0  0  0
   -0.2294   -1.9670   -1.1610 H   0  0  0  0  0  0  0  0  0  0  0  0
    0.3790    0.6051   -1.6978 H   0  0  0  0  0  0  0  0  0  0  0  0
    2.1874    0.4720    0.1514 H   0  0  0  0  0  0  0  0  0  0  0  0
    1.2774   -0.9052    0.8273 H   0  0  0  0  0  0  0  0  0  0  0  0
    3.1644   -1.1598   -0.9029 H   0  0  0  0  0  0  0  0  0  0  0  0
  1  2  2  0
  2  3  1  0
  3  4  2  0
  4  5  1  0
  5  6  1  0
  6  7  1  0
  7  8  1  0
  8  9  1  0
  7  3  1  0
  2 10  1  0
  4 11  1  0
  5 12  1  0
  5 13  1  0
  6 14  1  0
  6 15  1  0
  7 16  1  0
  8 17  1  0
  8 18  1  0
  9 19  1  0
M  END
