
     RDKit          3D

 15 15  0  0  0  0  0  0  0  0999 V2000
    1.1464    0.0577    1.7996 O   0  0  0  0  0  0  0  0  0  0  0  0
    1.6144    0.2149    0.7027 C   0  0  0  0  0  0  0  0  0  0  0  0
    0.7126    0.3335   -0.4693 C   0  0  0  0  0  0  0  0  0  0  0  0
   -0.2375    1.4619   -0.3134 C   0  0  0  0  0  0  0  0  0  0  0  0
   -1.3436    1.0271    0.2615 C   0  0  0  0  0  0  0  0  0  0  0  0
   -1.2213   -0.4111    0.5308 C   0  0  0  0  0  0  0  0  0  0  0  0
   -1.8383   -1.0296    1.4179 O   0  0  0  0  0  0  0  0  0  0  0  0
   -0.2296   -0.8510   -0.4862 C   0  0  0  0  0  0  0  0  0  0  0  0
    0.3852   -2.0407   -0.1666 O   0  0  0  0  0  0  0  0  0  0  0  0
    2.6722    0.2712    0.5544 H   0  0  0  0  0  0  0  0  0  0  0  0
    1.2938    0.4098   -1.4163 H   0  0  0  0  0  0  0  0  0  0  0  0
   -0.0503    2.4969   -0.6271 H   0  0  0  0  0  0  0  0  0  0  0  0
   -2.2289    1.6371    0.5080 H   0  0  0  0  0  0  0  0  0  0  0  0
   -0.7517   -0.8554   -1.4601 H   0  0  0  0  0  0  0  0  0  0  0  0
    0.0767   -2.7224   -0.8358 H   0  0  0  0  0  0  0  0  0  0  0  0
  1  2  2  0
  2  3  1  0
  3  4  1  0
  4  5  2  0
  5  6  1  0
  6  7  2  0
  6  8  1  0
  8  9  1  0
  8  3  1  0
  2 10  1  0
  3 11  1  0
  4 12  1  0
  5 13  1  0
  8 14  1  0
  9 15  1  0
M  END
