
     RDKit          3D

 17 17  0  0  0  0  0  0  0  0999 V2000
    3.1372    0.1503    1.5631 O   0  0  0  0  0  0  0  0  0  0  0  0
    1.9678    0.2421    1.1800 C   0  0  0  0  0  0  0  0  0  0  0  0
    1.6345   -0.3180   -0.1275 C   0  0  0  0  0  0  0  0  0  0  0  0
    0.2179   -0.1667   -0.5571 C   0  0  0  0  0  0  0  0  0  0  0  0
   -0.7928   -0.8307    0.3907 C   0  0  0  0  0  0  0  0  0  0  0  0
   -1.7090   -1.6940   -0.1922 O   0  0  0  0  0  0  0  0  0  0  0  0
   -0.8057    0.6191    0.1301 C   0  0  0  0  0  0  0  0  0  0  0  0
   -1.8712    1.2521   -0.6855 C   0  0  0  0  0  0  0  0  0  0  0  0
   -2.3468    2.3379   -0.4510 O   0  0  0  0  0  0  0  0  0  0  0  0
    1.2482    0.7177    1.8014 H   0  0  0  0  0  0  0  0  0  0  0  0
    2.3143    0.1781   -0.8781 H   0  0  0  0  0  0  0  0  0  0  0  0
    1.9432   -1.4038   -0.1858 H   0  0  0  0  0  0  0  0  0  0  0  0
    0.0236   -0.3608   -1.6490 H   0  0  0  0  0  0  0  0  0  0  0  0
   -0.4236   -1.1729    1.3746 H   0  0  0  0  0  0  0  0  0  0  0  0
   -1.7961   -1.5304   -1.1614 H   0  0  0  0  0  0  0  0  0  0  0  0
   -0.5030    1.2743    0.9844 H   0  0  0  0  0  0  0  0  0  0  0  0
   -2.2386    0.7057   -1.5366 H   0  0  0  0  0  0  0  0  0  0  0  0
  1  2  2  0
  2  3  1  0
  3  4  1  0
  4  5  1  0
  5  6  1  0
  5  7  1  0
  7  8  1  0
  8  9  2  0
  7  4  1  0
  2 10  1  0
  3 11  1  0
  3 12  1  0
  4 13  1  0
  5 14  1  0
  6 15  1  0
  7 16  1  0
  8 17  1  0
M  END
