
     RDKit          3D

 16 17  0  0  0  0  0  0  0  0999 V2000
    3.0912   -0.0325    0.5777 O   0  0  0  0  0  0  0  0  0  0  0  0
    1.8830   -0.0041    0.6337 C   0  0  0  0  0  0  0  0  0  0  0  0
    1.1238   -0.2696   -0.6239 C   0  0  0  0  0  0  0  0  0  0  0  0
   -0.3651   -0.2019   -0.4078 C   0  0  0  0  0  0  0  0  0  0  0  0
   -1.0222   -1.1324    0.5693 C   0  0  0  0  0  0  0  0  0  0  0  0
   -1.8404   -0.0944    1.0734 O   0  0  0  0  0  0  0  0  0  0  0  0
   -0.9830    0.8134    0.4437 C   0  0  0  0  0  0  0  0  0  0  0  0
   -1.1405    0.9372   -1.0120 C   0  0  0  0  0  0  0  0  0  0  0  0
    1.3762    0.2079    1.5711 H   0  0  0  0  0  0  0  0  0  0  0  0
    1.4625   -1.2204   -1.0422 H   0  0  0  0  0  0  0  0  0  0  0  0
    1.3943    0.5372   -1.3362 H   0  0  0  0  0  0  0  0  0  0  0  0
   -1.6933   -1.8842    0.0981 H   0  0  0  0  0  0  0  0  0  0  0  0
   -0.3897   -1.5006    1.3912 H   0  0  0  0  0  0  0  0  0  0  0  0
   -0.3228    1.4522    1.0472 H   0  0  0  0  0  0  0  0  0  0  0  0
   -0.4835    1.7136   -1.4997 H   0  0  0  0  0  0  0  0  0  0  0  0
   -2.0905    0.6783   -1.4836 H   0  0  0  0  0  0  0  0  0  0  0  0
  1  2  2  0
  2  3  1  0
  3  4  1  0
  4  5  1  0
  5  6  1  0
  6  7  1  0
  7  8  1  0
  7  4  1  0
  8  4  1  0
  2  9  1  0
  3 10  1  0
  3 11  1  0
  5 12  1  0
  5 13  1  0
  7 14  1  0
  8 15  1  0
  8 16  1  0
M  END
