
     RDKit          3D

 13 13  0  0  0  0  0  0  0  0999 V2000
    1.6250    1.6939    0.1266 O   0  0  0  0  0  0  0  0  0  0  0  0
    1.6708    0.4973   -0.0812 C   0  0  0  0  0  0  0  0  0  0  0  0
    0.4503   -0.1752   -0.5711 C   0  0  0  0  0  0  0  0  0  0  0  0
   -0.1287   -1.1389    0.4300 C   0  0  0  0  0  0  0  0  0  0  0  0
   -0.8035   -0.2482    1.2800 O   0  0  0  0  0  0  0  0  0  0  0  0
   -1.3610    0.6760    0.4243 C   0  0  0  0  0  0  0  0  0  0  0  0
   -0.5603    0.7633   -0.6999 O   0  0  0  0  0  0  0  0  0  0  0  0
    2.6126   -0.0070    0.1074 H   0  0  0  0  0  0  0  0  0  0  0  0
    0.5970   -0.6326   -1.5692 H   0  0  0  0  0  0  0  0  0  0  0  0
    0.6046   -1.7427    0.9570 H   0  0  0  0  0  0  0  0  0  0  0  0
   -0.9153   -1.7215   -0.0971 H   0  0  0  0  0  0  0  0  0  0  0  0
   -2.4053    0.3824    0.1601 H   0  0  0  0  0  0  0  0  0  0  0  0
   -1.3863    1.6532    0.9817 H   0  0  0  0  0  0  0  0  0  0  0  0
  1  2  2  0
  2  3  1  0
  3  4  1  0
  4  5  1  0
  5  6  1  0
  6  7  1  0
  7  3  1  0
  2  8  1  0
  3  9  1  0
  4 10  1  0
  4 11  1  0
  6 12  1  0
  6 13  1  0
M  END
