
     RDKit          3D

 17 18  0  0  0  0  0  0  0  0999 V2000
    2.6888   -0.6313   -1.1526 O   0  0  0  0  0  0  0  0  0  0  0  0
    2.1599   -0.2773   -0.1391 C   0  0  0  0  0  0  0  0  0  0  0  0
    0.7503   -0.1966    0.0367 C   0  0  0  0  0  0  0  0  0  0  0  0
   -0.0699    0.6157   -0.9658 C   0  0  0  0  0  0  0  0  0  0  0  0
   -1.3870    0.5872   -0.1625 C   0  0  0  0  0  0  0  0  0  0  0  0
   -1.6170    1.8227    0.4366 O   0  0  0  0  0  0  0  0  0  0  0  0
   -0.9259   -0.3479    0.9236 C   0  0  0  0  0  0  0  0  0  0  0  0
   -0.0794   -1.4097    0.2463 C   0  0  0  0  0  0  0  0  0  0  0  0
    0.3027    0.2410    1.2988 O   0  0  0  0  0  0  0  0  0  0  0  0
    2.8363   -0.0037    0.6910 H   0  0  0  0  0  0  0  0  0  0  0  0
   -0.2075    0.0449   -1.9105 H   0  0  0  0  0  0  0  0  0  0  0  0
    0.3038    1.6289   -1.0978 H   0  0  0  0  0  0  0  0  0  0  0  0
   -2.2170    0.2160   -0.7592 H   0  0  0  0  0  0  0  0  0  0  0  0
   -0.7490    2.3052    0.4848 H   0  0  0  0  0  0  0  0  0  0  0  0
   -1.5946   -0.6386    1.6971 H   0  0  0  0  0  0  0  0  0  0  0  0
   -0.5380   -1.8768   -0.6337 H   0  0  0  0  0  0  0  0  0  0  0  0
    0.3436   -2.0799    1.0065 H   0  0  0  0  0  0  0  0  0  0  0  0
  1  2  2  0
  2  3  1  0
  3  4  1  0
  4  5  1  0
  5  6  1  0
  5  7  1  0
  7  8  1  0
  7  9  1  0
  8  3  1  0
  9  3  1  0
  2 10  1  0
  4 11  1  0
  4 12  1  0
  5 13  1  0
  6 14  1  0
  7 15  1  0
  8 16  1  0
  8 17  1  0
M  END
