
     RDKit          3D

 19 18  0  0  0  0  0  0  0  0999 V2000
   -3.4576    0.5242    0.9265 O   0  0  0  0  0  0  0  0  0  0  0  0
   -2.5495    0.7158    0.1543 C   0  0  0  0  0  0  0  0  0  0  0  0
   -1.5084   -0.3219   -0.0019 C   0  0  0  0  0  0  0  0  0  0  0  0
   -1.7271   -1.4203    0.7948 O   0  0  0  0  0  0  0  0  0  0  0  0
   -0.1683    0.3502    0.3247 C   0  0  0  0  0  0  0  0  0  0  0  0
   -0.0718    1.4370   -0.5444 O   0  0  0  0  0  0  0  0  0  0  0  0
    0.9083   -0.6585    0.0114 C   0  0  0  0  0  0  0  0  0  0  0  0
    2.2871   -0.1468    0.2807 C   0  0  0  0  0  0  0  0  0  0  0  0
    2.5947    0.9863   -0.4715 O   0  0  0  0  0  0  0  0  0  0  0  0
   -2.4936    1.6311   -0.4172 H   0  0  0  0  0  0  0  0  0  0  0  0
   -1.4461   -0.6272   -1.0622 H   0  0  0  0  0  0  0  0  0  0  0  0
   -2.4046   -1.9877    0.3708 H   0  0  0  0  0  0  0  0  0  0  0  0
   -0.2010    0.6574    1.3691 H   0  0  0  0  0  0  0  0  0  0  0  0
   -0.4160    1.1116   -1.4275 H   0  0  0  0  0  0  0  0  0  0  0  0
    0.7682   -1.5855    0.6014 H   0  0  0  0  0  0  0  0  0  0  0  0
    0.8387   -0.9050   -1.0668 H   0  0  0  0  0  0  0  0  0  0  0  0
    2.4730    0.0233    1.3668 H   0  0  0  0  0  0  0  0  0  0  0  0
    3.0035   -0.9338   -0.0342 H   0  0  0  0  0  0  0  0  0  0  0  0
    3.5704    1.1502   -0.4199 H   0  0  0  0  0  0  0  0  0  0  0  0
  1  2  2  0
  2  3  1  0
  3  4  1  0
  3  5  1  0
  5  6  1  0
  5  7  1  0
  7  8  1  0
  8  9  1  0
  2 10  1  0
  3 11  1  0
  4 12  1  0
  5 13  1  0
  6 14  1  0
  7 15  1  0
  7 16  1  0
  8 17  1  0
  8 18  1  0
  9 19  1  0
M  END
