
     RDKit          3D

 16 15  0  0  0  0  0  0  0  0999 V2000
    3.0273   -0.2155   -1.4022 O   0  0  0  0  0  0  0  0  0  0  0  0
    2.2207    0.4308   -0.7367 C   0  0  0  0  0  0  0  0  0  0  0  0
    1.5266   -0.1860    0.4042 C   0  0  0  0  0  0  0  0  0  0  0  0
    0.3295   -1.0144   -0.0083 C   0  0  0  0  0  0  0  0  0  0  0  0
   -0.6849   -0.2120   -0.7214 C   0  0  0  0  0  0  0  0  0  0  0  0
   -0.5308    0.0623   -1.8974 O   0  0  0  0  0  0  0  0  0  0  0  0
   -1.9060    0.2774   -0.0385 C   0  0  0  0  0  0  0  0  0  0  0  0
   -2.7216    1.0096   -0.8987 O   0  0  0  0  0  0  0  0  0  0  0  0
    2.0594    1.4608   -1.0391 H   0  0  0  0  0  0  0  0  0  0  0  0
    2.2415   -0.8918    0.8841 H   0  0  0  0  0  0  0  0  0  0  0  0
    1.2172    0.5621    1.1769 H   0  0  0  0  0  0  0  0  0  0  0  0
   -0.0686   -1.4720    0.9250 H   0  0  0  0  0  0  0  0  0  0  0  0
    0.6823   -1.8313   -0.6467 H   0  0  0  0  0  0  0  0  0  0  0  0
   -2.5415   -0.5833    0.3153 H   0  0  0  0  0  0  0  0  0  0  0  0
   -1.6691    0.8603    0.8900 H   0  0  0  0  0  0  0  0  0  0  0  0
   -3.1819    1.7428   -0.4005 H   0  0  0  0  0  0  0  0  0  0  0  0
  1  2  2  0
  2  3  1  0
  3  4  1  0
  4  5  1  0
  5  6  2  0
  5  7  1  0
  7  8  1  0
  2  9  1  0
  3 10  1  0
  3 11  1  0
  4 12  1  0
  4 13  1  0
  7 14  1  0
  7 15  1  0
  8 16  1  0
M  END
