
     RDKit          3D

 17 18  0  0  0  0  0  0  0  0999 V2000
    3.2497    0.8005   -0.5628 O   0  0  0  0  0  0  0  0  0  0  0  0
    2.5527   -0.2362   -0.3777 C   0  0  0  0  0  0  0  0  0  0  0  0
    1.1128   -0.1032   -0.1053 C   0  0  0  0  0  0  0  0  0  0  0  0
    0.5590    1.0929   -0.0561 C   0  0  0  0  0  0  0  0  0  0  0  0
   -0.8792    1.3309    0.2109 C   0  0  0  0  0  0  0  0  0  0  0  0
   -1.7415    0.1579   -0.0640 C   0  0  0  0  0  0  0  0  0  0  0  0
   -1.0999   -1.1699    0.2171 C   0  0  0  0  0  0  0  0  0  0  0  0
   -0.3523   -1.3314    1.3789 O   0  0  0  0  0  0  0  0  0  0  0  0
    0.2972   -1.2967    0.1104 C   0  0  0  0  0  0  0  0  0  0  0  0
    3.0082   -1.2067   -0.4188 H   0  0  0  0  0  0  0  0  0  0  0  0
    1.2249    1.9396   -0.2260 H   0  0  0  0  0  0  0  0  0  0  0  0
   -1.1879    2.1560   -0.4957 H   0  0  0  0  0  0  0  0  0  0  0  0
   -0.9978    1.7699    1.2264 H   0  0  0  0  0  0  0  0  0  0  0  0
   -2.0832    0.1515   -1.1313 H   0  0  0  0  0  0  0  0  0  0  0  0
   -2.6624    0.2450    0.5495 H   0  0  0  0  0  0  0  0  0  0  0  0
   -1.7518   -2.0339   -0.0312 H   0  0  0  0  0  0  0  0  0  0  0  0
    0.7513   -2.2663   -0.2243 H   0  0  0  0  0  0  0  0  0  0  0  0
  1  2  2  0
  2  3  1  0
  3  4  2  0
  4  5  1  0
  5  6  1  0
  6  7  1  0
  7  8  1  0
  8  9  1  0
  9  3  1  0
  9  7  1  0
  2 10  1  0
  4 11  1  0
  5 12  1  0
  5 13  1  0
  6 14  1  0
  6 15  1  0
  7 16  1  0
  9 17  1  0
M  END
