
     RDKit          3D

 15 15  0  0  0  0  0  0  0  0999 V2000
   -2.5993   -0.3562    0.5855 O   0  0  0  0  0  0  0  0  0  0  0  0
   -1.9785    0.2322   -0.2942 C   0  0  0  0  0  0  0  0  0  0  0  0
   -0.5558   -0.0570   -0.5039 C   0  0  0  0  0  0  0  0  0  0  0  0
   -0.0374   -1.0388    0.5289 C   0  0  0  0  0  0  0  0  0  0  0  0
    1.4425   -0.8972    0.3085 C   0  0  0  0  0  0  0  0  0  0  0  0
    2.2414   -1.8438    0.4255 O   0  0  0  0  0  0  0  0  0  0  0  0
    1.6444    0.4987   -0.0392 C   0  0  0  0  0  0  0  0  0  0  0  0
    2.7625    1.0317   -0.1986 O   0  0  0  0  0  0  0  0  0  0  0  0
    0.3244    1.1561   -0.1666 C   0  0  0  0  0  0  0  0  0  0  0  0
   -2.5066    0.9456   -0.8849 H   0  0  0  0  0  0  0  0  0  0  0  0
   -0.2974   -0.3484   -1.5288 H   0  0  0  0  0  0  0  0  0  0  0  0
   -0.3745   -2.0738    0.3340 H   0  0  0  0  0  0  0  0  0  0  0  0
   -0.3351   -0.6627    1.5299 H   0  0  0  0  0  0  0  0  0  0  0  0
    0.2831    1.9249   -0.9357 H   0  0  0  0  0  0  0  0  0  0  0  0
   -0.0136    1.4885    0.8395 H   0  0  0  0  0  0  0  0  0  0  0  0
  1  2  2  0
  2  3  1  0
  3  4  1  0
  4  5  1  0
  5  6  2  0
  5  7  1  0
  7  8  2  0
  7  9  1  0
  9  3  1  0
  2 10  1  0
  3 11  1  0
  4 12  1  0
  4 13  1  0
  9 14  1  0
  9 15  1  0
M  END
