
     RDKit          3D

 19 20  0  0  0  0  0  0  0  0999 V2000
    3.1551    0.1208    0.7266 O   0  0  0  0  0  0  0  0  0  0  0  0
    2.6058   -0.6756    0.0071 C   0  0  0  0  0  0  0  0  0  0  0  0
    1.6079   -0.2709   -1.0094 C   0  0  0  0  0  0  0  0  0  0  0  0
    0.5675    0.5679   -0.2996 C   0  0  0  0  0  0  0  0  0  0  0  0
   -0.1159   -0.2405    0.8181 C   0  0  0  0  0  0  0  0  0  0  0  0
   -1.4359    0.4630    0.7106 C   0  0  0  0  0  0  0  0  0  0  0  0
   -2.6154    0.2509   -0.0081 C   0  0  0  0  0  0  0  0  0  0  0  0
   -1.4888    0.1893   -0.8492 C   0  0  0  0  0  0  0  0  0  0  0  0
   -0.4575    1.0028   -1.1381 O   0  0  0  0  0  0  0  0  0  0  0  0
    2.8413   -1.7445    0.0934 H   0  0  0  0  0  0  0  0  0  0  0  0
    1.1184   -1.1679   -1.4349 H   0  0  0  0  0  0  0  0  0  0  0  0
    2.0732    0.3250   -1.8404 H   0  0  0  0  0  0  0  0  0  0  0  0
    1.0036    1.5006    0.1393 H   0  0  0  0  0  0  0  0  0  0  0  0
    0.3761   -0.1625    1.7753 H   0  0  0  0  0  0  0  0  0  0  0  0
   -0.2511   -1.2662    0.4332 H   0  0  0  0  0  0  0  0  0  0  0  0
   -1.2159    1.5488    0.9902 H   0  0  0  0  0  0  0  0  0  0  0  0
   -3.2233   -0.6664    0.2029 H   0  0  0  0  0  0  0  0  0  0  0  0
   -3.3385    1.1039   -0.1693 H   0  0  0  0  0  0  0  0  0  0  0  0
   -1.2065   -0.8785   -1.1565 H   0  0  0  0  0  0  0  0  0  0  0  0
  1  2  2  0
  2  3  1  0
  3  4  1  0
  4  5  1  0
  5  6  1  0
  6  7  1  0
  7  8  1  0
  8  9  1  0
  9  4  1  0
  8  6  1  0
  2 10  1  0
  3 11  1  0
  3 12  1  0
  4 13  1  0
  5 14  1  0
  5 15  1  0
  6 16  1  0
  7 17  1  0
  7 18  1  0
  8 19  1  0
M  END
