
     RDKit          3D

 16 16  0  0  0  0  0  0  0  0999 V2000
    2.8693    0.1402    1.2309 O   0  0  0  0  0  0  0  0  0  0  0  0
    2.3672   -0.1466    0.1646 C   0  0  0  0  0  0  0  0  0  0  0  0
    1.0306    0.3734   -0.2225 C   0  0  0  0  0  0  0  0  0  0  0  0
    0.0812   -0.8007   -0.4255 C   0  0  0  0  0  0  0  0  0  0  0  0
   -1.2320   -0.0052   -0.3496 C   0  0  0  0  0  0  0  0  0  0  0  0
   -2.3124   -0.8038   -0.1264 O   0  0  0  0  0  0  0  0  0  0  0  0
   -0.8585    0.8273    0.8852 C   0  0  0  0  0  0  0  0  0  0  0  0
    0.4630    1.1793    0.7304 O   0  0  0  0  0  0  0  0  0  0  0  0
    2.8823   -0.7925   -0.5370 H   0  0  0  0  0  0  0  0  0  0  0  0
    1.0848    0.9377   -1.1851 H   0  0  0  0  0  0  0  0  0  0  0  0
    0.2077   -1.2941   -1.3893 H   0  0  0  0  0  0  0  0  0  0  0  0
    0.1787   -1.4415    0.4534 H   0  0  0  0  0  0  0  0  0  0  0  0
   -1.2981    0.6508   -1.2247 H   0  0  0  0  0  0  0  0  0  0  0  0
   -3.0347   -0.5683   -0.7683 H   0  0  0  0  0  0  0  0  0  0  0  0
   -1.5441    1.6599    1.0296 H   0  0  0  0  0  0  0  0  0  0  0  0
   -0.8851    0.0841    1.7343 H   0  0  0  0  0  0  0  0  0  0  0  0
  1  2  2  0
  2  3  1  0
  3  4  1  0
  4  5  1  0
  5  6  1  0
  5  7  1  0
  7  8  1  0
  8  3  1  0
  2  9  1  0
  3 10  1  0
  4 11  1  0
  4 12  1  0
  5 13  1  0
  6 14  1  0
  7 15  1  0
  7 16  1  0
M  END
