
     RDKit          3D

 19 20  0  0  0  0  0  0  0  0999 V2000
    2.5906    1.3437    0.9071 O   0  0  0  0  0  0  0  0  0  0  0  0
    1.5028    1.0414    0.4715 C   0  0  0  0  0  0  0  0  0  0  0  0
    1.1144   -0.3857    0.4713 C   0  0  0  0  0  0  0  0  0  0  0  0
    1.3411   -0.8918   -0.9613 C   0  0  0  0  0  0  0  0  0  0  0  0
    0.2626   -0.2500   -1.6019 O   0  0  0  0  0  0  0  0  0  0  0  0
   -0.8236   -0.5864   -0.8355 C   0  0  0  0  0  0  0  0  0  0  0  0
   -1.6393    0.6598   -0.4706 C   0  0  0  0  0  0  0  0  0  0  0  0
   -1.1933    0.5810    0.9680 C   0  0  0  0  0  0  0  0  0  0  0  0
   -0.3635   -0.6042    0.6178 C   0  0  0  0  0  0  0  0  0  0  0  0
    0.8357    1.7953    0.0937 H   0  0  0  0  0  0  0  0  0  0  0  0
    1.6882   -0.9920    1.1945 H   0  0  0  0  0  0  0  0  0  0  0  0
    2.3116   -0.5184   -1.2829 H   0  0  0  0  0  0  0  0  0  0  0  0
    1.2081   -1.9741   -0.9797 H   0  0  0  0  0  0  0  0  0  0  0  0
   -1.4245   -1.4427   -1.1445 H   0  0  0  0  0  0  0  0  0  0  0  0
   -2.7154    0.4445   -0.6203 H   0  0  0  0  0  0  0  0  0  0  0  0
   -1.2901    1.5818   -1.0009 H   0  0  0  0  0  0  0  0  0  0  0  0
   -2.0585    0.2787    1.6249 H   0  0  0  0  0  0  0  0  0  0  0  0
   -0.7052    1.4576    1.3870 H   0  0  0  0  0  0  0  0  0  0  0  0
   -0.6419   -1.5383    1.1618 H   0  0  0  0  0  0  0  0  0  0  0  0
  1  2  2  0
  2  3  1  0
  3  4  1  0
  4  5  1  0
  5  6  1  0
  6  7  1  0
  7  8  1  0
  8  9  1  0
  9  3  1  0
  9  6  1  0
  2 10  1  0
  3 11  1  0
  4 12  1  0
  4 13  1  0
  6 14  1  0
  7 15  1  0
  7 16  1  0
  8 17  1  0
  8 18  1  0
  9 19  1  0
M  END
