
     RDKit          3D

 19 21  0  0  0  0  0  0  0  0999 V2000
    3.0937   -0.6101    0.8223 O   0  0  0  0  0  0  0  0  0  0  0  0
    2.7358    0.5012    0.4734 C   0  0  0  0  0  0  0  0  0  0  0  0
    1.3028    0.7301    0.1102 C   0  0  0  0  0  0  0  0  0  0  0  0
    0.6527   -0.3703   -0.5955 C   0  0  0  0  0  0  0  0  0  0  0  0
   -0.7321   -0.3208   -1.1466 C   0  0  0  0  0  0  0  0  0  0  0  0
   -1.4275    0.8780   -0.5107 C   0  0  0  0  0  0  0  0  0  0  0  0
   -1.1514    0.1290    0.7745 C   0  0  0  0  0  0  0  0  0  0  0  0
   -1.4868   -1.1173   -0.0712 C   0  0  0  0  0  0  0  0  0  0  0  0
    0.3262   -0.0058    0.8993 C   0  0  0  0  0  0  0  0  0  0  0  0
    3.4974    1.2713    0.4479 H   0  0  0  0  0  0  0  0  0  0  0  0
    1.0310    1.7653   -0.2016 H   0  0  0  0  0  0  0  0  0  0  0  0
    1.1505   -1.3600   -0.7124 H   0  0  0  0  0  0  0  0  0  0  0  0
   -0.9365   -0.5483   -2.1590 H   0  0  0  0  0  0  0  0  0  0  0  0
   -0.9552    1.8415   -0.6426 H   0  0  0  0  0  0  0  0  0  0  0  0
   -2.5026    0.8539   -0.7519 H   0  0  0  0  0  0  0  0  0  0  0  0
   -1.7663    0.3092    1.6238 H   0  0  0  0  0  0  0  0  0  0  0  0
   -0.9378   -1.9930    0.2600 H   0  0  0  0  0  0  0  0  0  0  0  0
   -2.5539   -1.2031   -0.2677 H   0  0  0  0  0  0  0  0  0  0  0  0
    0.6599   -0.7507    1.6478 H   0  0  0  0  0  0  0  0  0  0  0  0
  1  2  2  0
  2  3  1  0
  3  4  1  0
  4  5  1  0
  5  6  1  0
  6  7  1  0
  7  8  1  0
  7  9  1  0
  9  3  1  0
  9  4  1  0
  8  5  1  0
  2 10  1  0
  3 11  1  0
  4 12  1  0
  5 13  1  0
  6 14  1  0
  6 15  1  0
  7 16  1  0
  8 17  1  0
  8 18  1  0
  9 19  1  0
M  END
