
     RDKit          3D

 17 17  0  0  0  0  0  0  0  0999 V2000
    2.5683   -1.0947   -1.4525 O   0  0  0  0  0  0  0  0  0  0  0  0
    2.5145   -0.1658   -0.6328 C   0  0  0  0  0  0  0  0  0  0  0  0
    1.4479   -0.1239    0.4067 C   0  0  0  0  0  0  0  0  0  0  0  0
    0.1904    0.3579   -0.2713 C   0  0  0  0  0  0  0  0  0  0  0  0
   -0.1812   -0.4943   -1.2941 O   0  0  0  0  0  0  0  0  0  0  0  0
   -1.1523   -1.0703   -0.4886 C   0  0  0  0  0  0  0  0  0  0  0  0
   -1.0876    0.1246    0.4556 C   0  0  0  0  0  0  0  0  0  0  0  0
   -2.1117    1.1554    0.0886 C   0  0  0  0  0  0  0  0  0  0  0  0
   -1.8619    2.3152    0.3280 O   0  0  0  0  0  0  0  0  0  0  0  0
    3.2722    0.6313   -0.6870 H   0  0  0  0  0  0  0  0  0  0  0  0
    1.7917    0.5673    1.2041 H   0  0  0  0  0  0  0  0  0  0  0  0
    1.3404   -1.1535    0.8112 H   0  0  0  0  0  0  0  0  0  0  0  0
    0.3221    1.4211   -0.5714 H   0  0  0  0  0  0  0  0  0  0  0  0
   -0.8497   -2.0199    0.0064 H   0  0  0  0  0  0  0  0  0  0  0  0
   -2.1296   -1.1440   -1.0414 H   0  0  0  0  0  0  0  0  0  0  0  0
   -1.0420   -0.1405    1.5146 H   0  0  0  0  0  0  0  0  0  0  0  0
   -3.0315    0.8341   -0.3736 H   0  0  0  0  0  0  0  0  0  0  0  0
  1  2  2  0
  2  3  1  0
  3  4  1  0
  4  5  1  0
  5  6  1  0
  6  7  1  0
  7  8  1  0
  8  9  2  0
  7  4  1  0
  2 10  1  0
  3 11  1  0
  3 12  1  0
  4 13  1  0
  6 14  1  0
  6 15  1  0
  7 16  1  0
  8 17  1  0
M  END
