
     RDKit          3D

 19 20  0  0  0  0  0  0  0  0999 V2000
    3.0753    1.0338    0.1610 O   0  0  0  0  0  0  0  0  0  0  0  0
    2.3912    0.1389   -0.3048 C   0  0  0  0  0  0  0  0  0  0  0  0
    0.9355    0.3514   -0.3760 C   0  0  0  0  0  0  0  0  0  0  0  0
    0.1886    0.0904    0.9382 C   0  0  0  0  0  0  0  0  0  0  0  0
   -1.1374    0.7815    0.7797 C   0  0  0  0  0  0  0  0  0  0  0  0
   -1.7530    0.4824   -0.5329 C   0  0  0  0  0  0  0  0  0  0  0  0
   -1.1112   -0.4092   -1.3267 O   0  0  0  0  0  0  0  0  0  0  0  0
    0.1394   -0.7904   -0.9395 C   0  0  0  0  0  0  0  0  0  0  0  0
    0.0335   -1.3404    0.4836 C   0  0  0  0  0  0  0  0  0  0  0  0
    2.8000   -0.7781   -0.6573 H   0  0  0  0  0  0  0  0  0  0  0  0
    0.6758    1.3485   -0.8263 H   0  0  0  0  0  0  0  0  0  0  0  0
    0.7516    0.2696    1.8417 H   0  0  0  0  0  0  0  0  0  0  0  0
   -1.8139    0.6188    1.6466 H   0  0  0  0  0  0  0  0  0  0  0  0
   -0.9094    1.8881    0.8035 H   0  0  0  0  0  0  0  0  0  0  0  0
   -2.7916    0.0825   -0.3405 H   0  0  0  0  0  0  0  0  0  0  0  0
   -1.9419    1.4130   -1.1454 H   0  0  0  0  0  0  0  0  0  0  0  0
    0.6292   -1.4422   -1.6528 H   0  0  0  0  0  0  0  0  0  0  0  0
   -0.9920   -1.7064    0.7036 H   0  0  0  0  0  0  0  0  0  0  0  0
    0.8304   -2.0323    0.7442 H   0  0  0  0  0  0  0  0  0  0  0  0
  1  2  2  0
  2  3  1  0
  3  4  1  0
  4  5  1  0
  5  6  1  0
  6  7  1  0
  7  8  1  0
  8  9  1  0
  8  3  1  0
  9  4  1  0
  2 10  1  0
  3 11  1  0
  4 12  1  0
  5 13  1  0
  5 14  1  0
  6 15  1  0
  6 16  1  0
  8 17  1  0
  9 18  1  0
  9 19  1  0
M  END
