
     RDKit          3D

 19 19  0  0  0  0  0  0  0  0999 V2000
    3.2803    0.6595    0.8191 O   0  0  0  0  0  0  0  0  0  0  0  0
    2.5803   -0.2032    0.2401 C   0  0  0  0  0  0  0  0  0  0  0  0
    1.1579    0.0163    0.0221 C   0  0  0  0  0  0  0  0  0  0  0  0
    0.7153    1.1684    0.4809 C   0  0  0  0  0  0  0  0  0  0  0  0
   -0.6721    1.6671    0.4065 C   0  0  0  0  0  0  0  0  0  0  0  0
   -1.3173    1.0898   -0.6759 O   0  0  0  0  0  0  0  0  0  0  0  0
   -1.8980   -0.1212   -0.4095 C   0  0  0  0  0  0  0  0  0  0  0  0
   -0.9680   -1.2347   -0.0942 C   0  0  0  0  0  0  0  0  0  0  0  0
    0.4088   -1.0901   -0.6863 C   0  0  0  0  0  0  0  0  0  0  0  0
    3.0866   -1.1022   -0.0812 H   0  0  0  0  0  0  0  0  0  0  0  0
    1.4579    1.7841    0.9496 H   0  0  0  0  0  0  0  0  0  0  0  0
   -0.6437    2.7752    0.1907 H   0  0  0  0  0  0  0  0  0  0  0  0
   -1.2199    1.5571    1.3552 H   0  0  0  0  0  0  0  0  0  0  0  0
   -2.5220   -0.3959   -1.2897 H   0  0  0  0  0  0  0  0  0  0  0  0
   -2.5981   -0.0120    0.4705 H   0  0  0  0  0  0  0  0  0  0  0  0
   -1.3965   -2.1864   -0.5045 H   0  0  0  0  0  0  0  0  0  0  0  0
   -0.8393   -1.4042    0.9925 H   0  0  0  0  0  0  0  0  0  0  0  0
    0.4181   -0.9478   -1.7720 H   0  0  0  0  0  0  0  0  0  0  0  0
    0.9699   -2.0195   -0.4137 H   0  0  0  0  0  0  0  0  0  0  0  0
  1  2  2  0
  2  3  1  0
  3  4  2  0
  4  5  1  0
  5  6  1  0
  6  7  1  0
  7  8  1  0
  8  9  1  0
  9  3  1  0
  2 10  1  0
  4 11  1  0
  5 12  1  0
  5 13  1  0
  7 14  1  0
  7 15  1  0
  8 16  1  0
  8 17  1  0
  9 18  1  0
  9 19  1  0
M  END
