
     RDKit          3D

 19 19  0  0  0  0  0  0  0  0999 V2000
   -1.9361   -0.8977   -1.4583 O   0  0  0  0  0  0  0  0  0  0  0  0
   -2.2852    0.0282   -0.7507 C   0  0  0  0  0  0  0  0  0  0  0  0
   -1.9465    0.1864    0.6613 C   0  0  0  0  0  0  0  0  0  0  0  0
   -1.6471   -0.9482    1.5532 C   0  0  0  0  0  0  0  0  0  0  0  0
   -0.4833   -0.1779    0.9948 C   0  0  0  0  0  0  0  0  0  0  0  0
    0.2315   -0.8475    0.0244 O   0  0  0  0  0  0  0  0  0  0  0  0
    1.5511   -0.4748   -0.0749 C   0  0  0  0  0  0  0  0  0  0  0  0
    1.7700    0.9660   -0.4028 C   0  0  0  0  0  0  0  0  0  0  0  0
    3.1446    1.1944   -0.4702 O   0  0  0  0  0  0  0  0  0  0  0  0
   -2.8958    0.7785   -1.2395 H   0  0  0  0  0  0  0  0  0  0  0  0
   -2.3592    1.1011    1.1406 H   0  0  0  0  0  0  0  0  0  0  0  0
   -1.7790   -2.0037    1.2502 H   0  0  0  0  0  0  0  0  0  0  0  0
   -1.8102   -0.7945    2.6386 H   0  0  0  0  0  0  0  0  0  0  0  0
    0.0177    0.5903    1.6166 H   0  0  0  0  0  0  0  0  0  0  0  0
    1.9989   -1.0762   -0.9006 H   0  0  0  0  0  0  0  0  0  0  0  0
    2.1485   -0.7351    0.8330 H   0  0  0  0  0  0  0  0  0  0  0  0
    1.3179    1.1646   -1.3994 H   0  0  0  0  0  0  0  0  0  0  0  0
    1.2894    1.5816    0.3694 H   0  0  0  0  0  0  0  0  0  0  0  0
    3.6727    0.3644   -0.2902 H   0  0  0  0  0  0  0  0  0  0  0  0
  1  2  2  0
  2  3  1  0
  3  4  1  0
  4  5  1  0
  5  6  1  0
  6  7  1  0
  7  8  1  0
  8  9  1  0
  5  3  1  0
  2 10  1  0
  3 11  1  0
  4 12  1  0
  4 13  1  0
  5 14  1  0
  7 15  1  0
  7 16  1  0
  8 17  1  0
  8 18  1  0
  9 19  1  0
M  END
