
     RDKit          3D

 17 18  0  0  0  0  0  0  0  0999 V2000
    0.6896    2.7506    0.4457 O   0  0  0  0  0  0  0  0  0  0  0  0
   -0.1097    1.8582    0.5761 C   0  0  0  0  0  0  0  0  0  0  0  0
   -0.2518    0.8434   -0.4747 C   0  0  0  0  0  0  0  0  0  0  0  0
   -1.2974   -0.2211   -0.2135 C   0  0  0  0  0  0  0  0  0  0  0  0
   -1.4187   -0.4368    1.1447 O   0  0  0  0  0  0  0  0  0  0  0  0
   -0.2932   -1.2302   -0.7896 C   0  0  0  0  0  0  0  0  0  0  0  0
    0.7618   -0.2479   -0.4172 C   0  0  0  0  0  0  0  0  0  0  0  0
    1.8264   -0.4665    0.3933 C   0  0  0  0  0  0  0  0  0  0  0  0
    1.9754   -0.1842   -0.9987 O   0  0  0  0  0  0  0  0  0  0  0  0
   -0.7172    1.8054    1.4595 H   0  0  0  0  0  0  0  0  0  0  0  0
   -0.4220    1.3063   -1.4641 H   0  0  0  0  0  0  0  0  0  0  0  0
   -2.2177   -0.1437   -0.7914 H   0  0  0  0  0  0  0  0  0  0  0  0
   -2.2314   -0.9073    1.4178 H   0  0  0  0  0  0  0  0  0  0  0  0
   -0.2125   -2.1648   -0.2381 H   0  0  0  0  0  0  0  0  0  0  0  0
   -0.4644   -1.3833   -1.8697 H   0  0  0  0  0  0  0  0  0  0  0  0
    2.1505   -1.4899    0.7236 H   0  0  0  0  0  0  0  0  0  0  0  0
    2.2320    0.3118    1.0964 H   0  0  0  0  0  0  0  0  0  0  0  0
  1  2  2  0
  2  3  1  0
  3  4  1  0
  4  5  1  0
  4  6  1  0
  6  7  1  0
  7  8  1  0
  8  9  1  0
  7  3  1  0
  9  7  1  0
  2 10  1  0
  3 11  1  0
  4 12  1  0
  5 13  1  0
  6 14  1  0
  6 15  1  0
  8 16  1  0
  8 17  1  0
M  END
