
     RDKit          3D

 17 19  0  0  0  0  0  0  0  0999 V2000
    2.1728   -1.3890   -0.8310 O   0  0  0  0  0  0  0  0  0  0  0  0
    1.2978   -1.3774    0.0136 C   0  0  0  0  0  0  0  0  0  0  0  0
    0.1275   -0.5739   -0.0480 C   0  0  0  0  0  0  0  0  0  0  0  0
   -1.1948   -1.1484   -0.4075 C   0  0  0  0  0  0  0  0  0  0  0  0
   -2.0247   -0.0013   -0.3180 O   0  0  0  0  0  0  0  0  0  0  0  0
   -1.1243    0.9880    0.0088 C   0  0  0  0  0  0  0  0  0  0  0  0
   -0.1652    0.4290    1.0254 C   0  0  0  0  0  0  0  0  0  0  0  0
    0.8706    1.3020    0.3879 C   0  0  0  0  0  0  0  0  0  0  0  0
    0.1332    0.7297   -0.7810 C   0  0  0  0  0  0  0  0  0  0  0  0
    1.4646   -2.0537    0.8717 H   0  0  0  0  0  0  0  0  0  0  0  0
   -1.1409   -1.4680   -1.4892 H   0  0  0  0  0  0  0  0  0  0  0  0
   -1.5695   -1.9343    0.2480 H   0  0  0  0  0  0  0  0  0  0  0  0
   -1.4614    2.0006    0.1201 H   0  0  0  0  0  0  0  0  0  0  0  0
   -0.3337    0.2671    1.9956 H   0  0  0  0  0  0  0  0  0  0  0  0
    0.7569    2.3980    0.5547 H   0  0  0  0  0  0  0  0  0  0  0  0
    1.9121    0.9350    0.4033 H   0  0  0  0  0  0  0  0  0  0  0  0
    0.2790    0.8965   -1.7546 H   0  0  0  0  0  0  0  0  0  0  0  0
  1  2  2  0
  2  3  1  0
  3  4  1  0
  4  5  1  0
  5  6  1  0
  6  7  1  0
  7  8  1  0
  8  9  1  0
  7  3  1  0
  9  3  1  0
  9  6  1  0
  2 10  1  0
  4 11  1  0
  4 12  1  0
  6 13  1  0
  7 14  1  0
  8 15  1  0
  8 16  1  0
  9 17  1  0
M  END
