
     RDKit          3D

 15 15  0  0  0  0  0  0  0  0999 V2000
    2.4837    1.5670    0.3363 O   0  0  0  0  0  0  0  0  0  0  0  0
    2.7304    0.4442   -0.1327 C   0  0  0  0  0  0  0  0  0  0  0  0
    1.6625   -0.5124   -0.2783 C   0  0  0  0  0  0  0  0  0  0  0  0
    1.8905   -1.6618   -0.7536 O   0  0  0  0  0  0  0  0  0  0  0  0
    0.2834   -0.1998    0.1127 C   0  0  0  0  0  0  0  0  0  0  0  0
   -0.5846   -1.2658   -0.1135 O   0  0  0  0  0  0  0  0  0  0  0  0
   -1.8004   -0.6882    0.2554 C   0  0  0  0  0  0  0  0  0  0  0  0
   -1.6340    0.7238   -0.2458 C   0  0  0  0  0  0  0  0  0  0  0  0
   -0.2972    0.7906   -0.6989 O   0  0  0  0  0  0  0  0  0  0  0  0
    3.7233    0.1926   -0.4242 H   0  0  0  0  0  0  0  0  0  0  0  0
    0.1787    0.0608    1.1932 H   0  0  0  0  0  0  0  0  0  0  0  0
   -2.6595   -1.1683   -0.2526 H   0  0  0  0  0  0  0  0  0  0  0  0
   -1.8671   -0.7488    1.3592 H   0  0  0  0  0  0  0  0  0  0  0  0
   -2.3540    0.9917   -1.0164 H   0  0  0  0  0  0  0  0  0  0  0  0
   -1.7557    1.4744    0.5822 H   0  0  0  0  0  0  0  0  0  0  0  0
  1  2  2  0
  2  3  1  0
  3  4  2  0
  3  5  1  0
  5  6  1  0
  6  7  1  0
  7  8  1  0
  8  9  1  0
  9  5  1  0
  2 10  1  0
  5 11  1  0
  7 12  1  0
  7 13  1  0
  8 14  1  0
  8 15  1  0
M  END
