
     RDKit          3D

 14 15  0  0  0  0  0  0  0  0999 V2000
    2.2922    1.6996   -0.3442 O   0  0  0  0  0  0  0  0  0  0  0  0
    2.0789    0.5223   -0.1296 C   0  0  0  0  0  0  0  0  0  0  0  0
    0.7587   -0.1109   -0.4178 C   0  0  0  0  0  0  0  0  0  0  0  0
   -0.1387    0.8118   -0.9424 O   0  0  0  0  0  0  0  0  0  0  0  0
   -1.3926    0.2334   -0.7316 C   0  0  0  0  0  0  0  0  0  0  0  0
   -1.3520   -0.1078    0.7306 C   0  0  0  0  0  0  0  0  0  0  0  0
   -0.4624    0.4986    1.5827 O   0  0  0  0  0  0  0  0  0  0  0  0
    0.1025   -0.5295    0.8786 C   0  0  0  0  0  0  0  0  0  0  0  0
    2.8691   -0.0687    0.2786 H   0  0  0  0  0  0  0  0  0  0  0  0
    0.8631   -0.9337   -1.1342 H   0  0  0  0  0  0  0  0  0  0  0  0
   -2.1980    0.9335   -0.9590 H   0  0  0  0  0  0  0  0  0  0  0  0
   -1.5117   -0.7257   -1.2905 H   0  0  0  0  0  0  0  0  0  0  0  0
   -2.1385   -0.6940    1.2026 H   0  0  0  0  0  0  0  0  0  0  0  0
    0.2294   -1.5289    1.2760 H   0  0  0  0  0  0  0  0  0  0  0  0
  1  2  2  0
  2  3  1  0
  3  4  1  0
  4  5  1  0
  5  6  1  0
  6  7  1  0
  7  8  1  0
  8  3  1  0
  8  6  1  0
  2  9  1  0
  3 10  1  0
  5 11  1  0
  5 12  1  0
  6 13  1  0
  8 14  1  0
M  END
