
     RDKit          3D

 16 16  0  0  0  0  0  0  0  0999 V2000
    2.6325    1.1023   -0.2148 O   0  0  0  0  0  0  0  0  0  0  0  0
    1.4361    1.0645   -0.4032 C   0  0  0  0  0  0  0  0  0  0  0  0
    0.6826   -0.1376   -0.0060 C   0  0  0  0  0  0  0  0  0  0  0  0
    1.5494   -1.0478    0.5408 O   0  0  0  0  0  0  0  0  0  0  0  0
   -0.3653    0.2206    1.0128 C   0  0  0  0  0  0  0  0  0  0  0  0
   -1.6260    0.2263    0.2323 C   0  0  0  0  0  0  0  0  0  0  0  0
   -1.4280   -0.3552   -0.9822 O   0  0  0  0  0  0  0  0  0  0  0  0
   -0.1275   -0.7095   -1.1395 C   0  0  0  0  0  0  0  0  0  0  0  0
    0.8820    1.8841   -0.8570 H   0  0  0  0  0  0  0  0  0  0  0  0
    1.0210   -1.7704    0.9530 H   0  0  0  0  0  0  0  0  0  0  0  0
   -0.3449   -0.4985    1.8547 H   0  0  0  0  0  0  0  0  0  0  0  0
   -0.1246    1.2173    1.4717 H   0  0  0  0  0  0  0  0  0  0  0  0
   -2.4556   -0.3210    0.7510 H   0  0  0  0  0  0  0  0  0  0  0  0
   -1.9137    1.2976    0.0565 H   0  0  0  0  0  0  0  0  0  0  0  0
    0.2335   -0.3564   -2.1276 H   0  0  0  0  0  0  0  0  0  0  0  0
   -0.0515   -1.8164   -1.1425 H   0  0  0  0  0  0  0  0  0  0  0  0
  1  2  2  0
  2  3  1  0
  3  4  1  0
  3  5  1  0
  5  6  1  0
  6  7  1  0
  7  8  1  0
  8  3  1  0
  2  9  1  0
  4 10  1  0
  5 11  1  0
  5 12  1  0
  6 13  1  0
  6 14  1  0
  8 15  1  0
  8 16  1  0
M  END
