
     RDKit          3D

 15 17  0  0  0  0  0  0  0  0999 V2000
    2.6248    0.0378   -1.4377 O   0  0  0  0  0  0  0  0  0  0  0  0
    2.2184   -0.0457   -0.2913 C   0  0  0  0  0  0  0  0  0  0  0  0
    0.8206   -0.1630   -0.0252 C   0  0  0  0  0  0  0  0  0  0  0  0
   -0.0410    0.9995   -0.5050 C   0  0  0  0  0  0  0  0  0  0  0  0
   -1.3773    0.3959   -0.0456 C   0  0  0  0  0  0  0  0  0  0  0  0
   -0.9742   -0.3492    1.1506 C   0  0  0  0  0  0  0  0  0  0  0  0
    0.4301   -0.2530    1.2900 O   0  0  0  0  0  0  0  0  0  0  0  0
   -1.1426   -1.0364   -0.1338 C   0  0  0  0  0  0  0  0  0  0  0  0
    0.1552   -1.2344   -0.6052 O   0  0  0  0  0  0  0  0  0  0  0  0
    2.9648   -0.0259    0.4912 H   0  0  0  0  0  0  0  0  0  0  0  0
    0.1342    1.8939    0.0883 H   0  0  0  0  0  0  0  0  0  0  0  0
   -0.0228    1.1372   -1.5797 H   0  0  0  0  0  0  0  0  0  0  0  0
   -2.2939    0.9273   -0.1867 H   0  0  0  0  0  0  0  0  0  0  0  0
   -1.5980   -0.4771    2.0232 H   0  0  0  0  0  0  0  0  0  0  0  0
   -1.8984   -1.8070   -0.2332 H   0  0  0  0  0  0  0  0  0  0  0  0
  1  2  2  0
  2  3  1  0
  3  4  1  0
  4  5  1  0
  5  6  1  0
  6  7  1  0
  6  8  1  0
  8  9  1  0
  7  3  1  0
  9  3  1  0
  8  5  1  0
  2 10  1  0
  4 11  1  0
  4 12  1  0
  5 13  1  0
  6 14  1  0
  8 15  1  0
M  END
