
     RDKit          3D

 15 16  0  0  0  0  0  0  0  0999 V2000
    3.4736    0.2911   -0.0439 O   0  0  0  0  0  0  0  0  0  0  0  0
    2.3538    0.4843    0.3599 C   0  0  0  0  0  0  0  0  0  0  0  0
    1.3341   -0.5727    0.2102 C   0  0  0  0  0  0  0  0  0  0  0  0
    0.5157   -0.8768    1.3067 O   0  0  0  0  0  0  0  0  0  0  0  0
   -0.0022   -0.2840    0.1877 C   0  0  0  0  0  0  0  0  0  0  0  0
   -1.1214   -0.8818   -0.5915 C   0  0  0  0  0  0  0  0  0  0  0  0
   -1.8839    0.3957   -0.3361 C   0  0  0  0  0  0  0  0  0  0  0  0
   -0.6763    1.0005    0.3234 C   0  0  0  0  0  0  0  0  0  0  0  0
   -0.4884    2.1168    0.7435 O   0  0  0  0  0  0  0  0  0  0  0  0
    2.0925    1.4174    0.8267 H   0  0  0  0  0  0  0  0  0  0  0  0
    1.7278   -1.5042   -0.2940 H   0  0  0  0  0  0  0  0  0  0  0  0
   -0.8529   -1.0275   -1.6794 H   0  0  0  0  0  0  0  0  0  0  0  0
   -1.5722   -1.7721   -0.1160 H   0  0  0  0  0  0  0  0  0  0  0  0
   -2.1540    0.9183   -1.2589 H   0  0  0  0  0  0  0  0  0  0  0  0
   -2.7463    0.2950    0.3618 H   0  0  0  0  0  0  0  0  0  0  0  0
  1  2  2  0
  2  3  1  0
  3  4  1  0
  4  5  1  0
  5  6  1  0
  6  7  1  0
  7  8  1  0
  8  9  2  0
  5  3  1  0
  8  5  1  0
  2 10  1  0
  3 11  1  0
  6 12  1  0
  6 13  1  0
  7 14  1  0
  7 15  1  0
M  END
