
     RDKit          3D

 17 18  0  0  0  0  0  0  0  0999 V2000
    2.4793    0.8370   -0.5597 O   0  0  0  0  0  0  0  0  0  0  0  0
    2.1551    0.4780    0.5551 C   0  0  0  0  0  0  0  0  0  0  0  0
    0.9359   -0.3058    0.7870 C   0  0  0  0  0  0  0  0  0  0  0  0
    0.6478   -1.3895   -0.2866 C   0  0  0  0  0  0  0  0  0  0  0  0
   -0.2235   -0.2828   -0.1042 C   0  0  0  0  0  0  0  0  0  0  0  0
   -1.6223   -0.2844    0.3803 C   0  0  0  0  0  0  0  0  0  0  0  0
   -1.7479    1.0916   -0.1509 C   0  0  0  0  0  0  0  0  0  0  0  0
   -2.4791    2.0247    0.0552 O   0  0  0  0  0  0  0  0  0  0  0  0
   -0.5892    0.7966   -1.0292 C   0  0  0  0  0  0  0  0  0  0  0  0
    2.7918    0.7514    1.3837 H   0  0  0  0  0  0  0  0  0  0  0  0
    0.7172   -0.5917    1.8442 H   0  0  0  0  0  0  0  0  0  0  0  0
    0.4261   -2.3792    0.1428 H   0  0  0  0  0  0  0  0  0  0  0  0
    1.3395   -1.4108   -1.1545 H   0  0  0  0  0  0  0  0  0  0  0  0
   -2.2868   -0.9919   -0.1841 H   0  0  0  0  0  0  0  0  0  0  0  0
   -1.7196   -0.3952    1.4732 H   0  0  0  0  0  0  0  0  0  0  0  0
   -0.9813    0.4563   -2.0293 H   0  0  0  0  0  0  0  0  0  0  0  0
    0.1571    1.5958   -1.1226 H   0  0  0  0  0  0  0  0  0  0  0  0
  1  2  2  0
  2  3  1  0
  3  4  1  0
  4  5  1  0
  5  6  1  0
  6  7  1  0
  7  8  2  0
  7  9  1  0
  5  3  1  0
  9  5  1  0
  2 10  1  0
  3 11  1  0
  4 12  1  0
  4 13  1  0
  6 14  1  0
  6 15  1  0
  9 16  1  0
  9 17  1  0
M  END
