
     RDKit          3D

 17 17  0  0  0  0  0  0  0  0999 V2000
    2.4644    1.4578    0.1624 O   0  0  0  0  0  0  0  0  0  0  0  0
    2.6956    0.2266    0.1650 C   0  0  0  0  0  0  0  0  0  0  0  0
    1.7082   -0.7088   -0.3522 C   0  0  0  0  0  0  0  0  0  0  0  0
    1.9349   -1.9649   -0.3541 O   0  0  0  0  0  0  0  0  0  0  0  0
    0.4228   -0.1987   -0.8836 C   0  0  0  0  0  0  0  0  0  0  0  0
   -0.7199   -0.3350    0.0638 C   0  0  0  0  0  0  0  0  0  0  0  0
   -1.0309   -1.6356    0.4708 O   0  0  0  0  0  0  0  0  0  0  0  0
   -1.1285    0.7937    0.9591 C   0  0  0  0  0  0  0  0  0  0  0  0
   -1.9148    0.5784   -0.2748 C   0  0  0  0  0  0  0  0  0  0  0  0
    3.6256   -0.2003    0.5450 H   0  0  0  0  0  0  0  0  0  0  0  0
    0.5471    0.8574   -1.1410 H   0  0  0  0  0  0  0  0  0  0  0  0
    0.1709   -0.8127   -1.7923 H   0  0  0  0  0  0  0  0  0  0  0  0
   -1.9390   -1.6976    0.8553 H   0  0  0  0  0  0  0  0  0  0  0  0
   -1.5957    0.5601    1.9155 H   0  0  0  0  0  0  0  0  0  0  0  0
   -0.5106    1.7242    0.9864 H   0  0  0  0  0  0  0  0  0  0  0  0
   -1.8067    1.2866   -1.1031 H   0  0  0  0  0  0  0  0  0  0  0  0
   -2.9234    0.0686   -0.2224 H   0  0  0  0  0  0  0  0  0  0  0  0
  1  2  2  0
  2  3  1  0
  3  4  2  0
  3  5  1  0
  5  6  1  0
  6  7  1  0
  6  8  1  0
  8  9  1  0
  9  6  1  0
  2 10  1  0
  5 11  1  0
  5 12  1  0
  7 13  1  0
  8 14  1  0
  8 15  1  0
  9 16  1  0
  9 17  1  0
M  END
