
     RDKit          3D

 17 18  0  0  0  0  0  0  0  0999 V2000
   -2.6593   -0.0046    1.1403 O   0  0  0  0  0  0  0  0  0  0  0  0
   -2.3083    0.4034    0.0600 C   0  0  0  0  0  0  0  0  0  0  0  0
   -0.9473    0.1670   -0.4590 C   0  0  0  0  0  0  0  0  0  0  0  0
   -0.4396   -1.2487   -0.3144 C   0  0  0  0  0  0  0  0  0  0  0  0
    0.6196   -0.7337    0.6111 C   0  0  0  0  0  0  0  0  0  0  0  0
    1.8813   -0.6678    0.0741 O   0  0  0  0  0  0  0  0  0  0  0  0
    2.1266    0.6143   -0.3328 C   0  0  0  0  0  0  0  0  0  0  0  0
    1.0758    1.4176   -0.0032 O   0  0  0  0  0  0  0  0  0  0  0  0
    0.0767    0.6514    0.5624 C   0  0  0  0  0  0  0  0  0  0  0  0
   -2.9994    0.9546   -0.5467 H   0  0  0  0  0  0  0  0  0  0  0  0
   -0.7736    0.5822   -1.4652 H   0  0  0  0  0  0  0  0  0  0  0  0
    0.0078   -1.6153   -1.2566 H   0  0  0  0  0  0  0  0  0  0  0  0
   -1.1717   -1.9546    0.1218 H   0  0  0  0  0  0  0  0  0  0  0  0
    0.5280   -1.1694    1.6171 H   0  0  0  0  0  0  0  0  0  0  0  0
    3.0886    0.9556    0.1429 H   0  0  0  0  0  0  0  0  0  0  0  0
    2.2383    0.6318   -1.4564 H   0  0  0  0  0  0  0  0  0  0  0  0
   -0.3437    1.0164    1.5046 H   0  0  0  0  0  0  0  0  0  0  0  0
  1  2  2  0
  2  3  1  0
  3  4  1  0
  4  5  1  0
  5  6  1  0
  6  7  1  0
  7  8  1  0
  8  9  1  0
  9  3  1  0
  9  5  1  0
  2 10  1  0
  3 11  1  0
  4 12  1  0
  4 13  1  0
  5 14  1  0
  7 15  1  0
  7 16  1  0
  9 17  1  0
M  END
