
     RDKit          3D

 21 22  0  0  0  0  0  0  0  0999 V2000
    3.7616   -0.8925    0.2652 O   0  0  0  0  0  0  0  0  0  0  0  0
    2.8354   -0.0932    0.3396 C   0  0  0  0  0  0  0  0  0  0  0  0
    1.6434   -0.3924   -0.4926 C   0  0  0  0  0  0  0  0  0  0  0  0
    0.4485    0.4394   -0.1405 C   0  0  0  0  0  0  0  0  0  0  0  0
   -0.5839    0.2787   -1.2592 C   0  0  0  0  0  0  0  0  0  0  0  0
   -1.7655   -0.1170   -0.4343 C   0  0  0  0  0  0  0  0  0  0  0  0
   -1.1678   -1.2378    0.4116 C   0  0  0  0  0  0  0  0  0  0  0  0
   -0.3590   -0.0851    0.9981 C   0  0  0  0  0  0  0  0  0  0  0  0
   -1.6528    0.7059    0.8358 C   0  0  0  0  0  0  0  0  0  0  0  0
    2.9269    0.7745    0.9737 H   0  0  0  0  0  0  0  0  0  0  0  0
    1.4017   -1.4614   -0.4225 H   0  0  0  0  0  0  0  0  0  0  0  0
    1.9411   -0.2099   -1.5559 H   0  0  0  0  0  0  0  0  0  0  0  0
    0.7119    1.5154   -0.0557 H   0  0  0  0  0  0  0  0  0  0  0  0
   -0.3359   -0.5995   -1.9077 H   0  0  0  0  0  0  0  0  0  0  0  0
   -0.7174    1.2104   -1.8322 H   0  0  0  0  0  0  0  0  0  0  0  0
   -2.7234   -0.2690   -0.8761 H   0  0  0  0  0  0  0  0  0  0  0  0
   -1.9163   -1.6590    1.0960 H   0  0  0  0  0  0  0  0  0  0  0  0
   -0.5871   -1.9647   -0.1764 H   0  0  0  0  0  0  0  0  0  0  0  0
    0.0538   -0.1971    1.9744 H   0  0  0  0  0  0  0  0  0  0  0  0
   -1.5191    1.7909    0.6796 H   0  0  0  0  0  0  0  0  0  0  0  0
   -2.3960    0.3906    1.5791 H   0  0  0  0  0  0  0  0  0  0  0  0
  1  2  2  0
  2  3  1  0
  3  4  1  0
  4  5  1  0
  5  6  1  0
  6  7  1  0
  7  8  1  0
  8  9  1  0
  8  4  1  0
  9  6  1  0
  2 10  1  0
  3 11  1  0
  3 12  1  0
  4 13  1  0
  5 14  1  0
  5 15  1  0
  6 16  1  0
  7 17  1  0
  7 18  1  0
  8 19  1  0
  9 20  1  0
  9 21  1  0
M  END
