
     RDKit          3D

 19 21  0  0  0  0  0  0  0  0999 V2000
    3.6467    0.7193   -1.0421 O   0  0  0  0  0  0  0  0  0  0  0  0
    2.8958    0.2116   -0.2262 C   0  0  0  0  0  0  0  0  0  0  0  0
    1.5277   -0.1177   -0.6497 C   0  0  0  0  0  0  0  0  0  0  0  0
    0.7829   -1.1801    0.0703 C   0  0  0  0  0  0  0  0  0  0  0  0
   -0.6896   -1.3549   -0.0949 C   0  0  0  0  0  0  0  0  0  0  0  0
   -0.9094    0.1151   -0.0360 C   0  0  0  0  0  0  0  0  0  0  0  0
   -2.0701    0.7842    0.4842 C   0  0  0  0  0  0  0  0  0  0  0  0
   -1.6336    0.8986   -1.0084 C   0  0  0  0  0  0  0  0  0  0  0  0
    0.4912    0.3049    0.3825 C   0  0  0  0  0  0  0  0  0  0  0  0
    3.2899    0.0343    0.7688 H   0  0  0  0  0  0  0  0  0  0  0  0
    1.2671    0.1203   -1.6947 H   0  0  0  0  0  0  0  0  0  0  0  0
    1.3558   -1.7577    0.7947 H   0  0  0  0  0  0  0  0  0  0  0  0
   -1.0426   -1.7724   -1.0498 H   0  0  0  0  0  0  0  0  0  0  0  0
   -1.1880   -1.8783    0.7501 H   0  0  0  0  0  0  0  0  0  0  0  0
   -1.9315    1.7385    1.0446 H   0  0  0  0  0  0  0  0  0  0  0  0
   -3.0557    0.3143    0.6608 H   0  0  0  0  0  0  0  0  0  0  0  0
   -1.2264    1.8550   -1.3373 H   0  0  0  0  0  0  0  0  0  0  0  0
   -2.3066    0.3394   -1.7188 H   0  0  0  0  0  0  0  0  0  0  0  0
    0.7962    0.6257    1.3756 H   0  0  0  0  0  0  0  0  0  0  0  0
  1  2  2  0
  2  3  1  0
  3  4  1  0
  4  5  1  0
  5  6  1  0
  6  7  1  0
  7  8  1  0
  6  9  1  0
  9  3  1  0
  9  4  1  0
  8  6  1  0
  2 10  1  0
  3 11  1  0
  4 12  1  0
  5 13  1  0
  5 14  1  0
  7 15  1  0
  7 16  1  0
  8 17  1  0
  8 18  1  0
  9 19  1  0
M  END
