
     RDKit          3D

 17 17  0  0  0  0  0  0  0  0999 V2000
   -2.0475   -2.2400   -0.6365 O   0  0  0  0  0  0  0  0  0  0  0  0
   -1.9437   -1.1996   -0.0077 C   0  0  0  0  0  0  0  0  0  0  0  0
   -0.9516   -0.1987   -0.4051 C   0  0  0  0  0  0  0  0  0  0  0  0
   -1.4810    1.1706   -0.1415 C   0  0  0  0  0  0  0  0  0  0  0  0
   -1.1956    2.1120   -0.8620 O   0  0  0  0  0  0  0  0  0  0  0  0
    0.3032   -0.3135    0.4329 C   0  0  0  0  0  0  0  0  0  0  0  0
    1.2804    0.7534   -0.0371 C   0  0  0  0  0  0  0  0  0  0  0  0
    2.2097   -0.3925    0.1074 C   0  0  0  0  0  0  0  0  0  0  0  0
    1.1735   -1.3235    0.0815 O   0  0  0  0  0  0  0  0  0  0  0  0
   -2.6017   -1.0338    0.8506 H   0  0  0  0  0  0  0  0  0  0  0  0
   -0.7446   -0.2791   -1.4890 H   0  0  0  0  0  0  0  0  0  0  0  0
   -2.1347    1.3828    0.6933 H   0  0  0  0  0  0  0  0  0  0  0  0
    0.0264   -0.2516    1.5042 H   0  0  0  0  0  0  0  0  0  0  0  0
    1.3341    1.5624    0.7119 H   0  0  0  0  0  0  0  0  0  0  0  0
    1.1300    1.0587   -1.0838 H   0  0  0  0  0  0  0  0  0  0  0  0
    2.7643   -0.3305    1.0726 H   0  0  0  0  0  0  0  0  0  0  0  0
    2.8788   -0.4771   -0.7916 H   0  0  0  0  0  0  0  0  0  0  0  0
  1  2  2  0
  2  3  1  0
  3  4  1  0
  4  5  2  0
  3  6  1  0
  6  7  1  0
  7  8  1  0
  8  9  1  0
  9  6  1  0
  2 10  1  0
  3 11  1  0
  4 12  1  0
  6 13  1  0
  7 14  1  0
  7 15  1  0
  8 16  1  0
  8 17  1  0
M  END
