
     RDKit          3D

 17 17  0  0  0  0  0  0  0  0999 V2000
    2.0395    1.0877    1.1998 O   0  0  0  0  0  0  0  0  0  0  0  0
    2.4824    0.3275    0.3525 C   0  0  0  0  0  0  0  0  0  0  0  0
    1.6153   -0.4703   -0.5596 C   0  0  0  0  0  0  0  0  0  0  0  0
    0.1756   -0.2238   -0.3071 C   0  0  0  0  0  0  0  0  0  0  0  0
   -0.6875    0.2537   -1.1858 C   0  0  0  0  0  0  0  0  0  0  0  0
   -2.0555    0.3615   -0.5481 C   0  0  0  0  0  0  0  0  0  0  0  0
   -1.6999    0.3661    0.8993 C   0  0  0  0  0  0  0  0  0  0  0  0
   -2.2602    0.9369    1.8092 O   0  0  0  0  0  0  0  0  0  0  0  0
   -0.4943   -0.4921    0.9826 C   0  0  0  0  0  0  0  0  0  0  0  0
    3.5519    0.2078    0.2364 H   0  0  0  0  0  0  0  0  0  0  0  0
    1.8871   -1.5434   -0.3789 H   0  0  0  0  0  0  0  0  0  0  0  0
    1.8576   -0.2909   -1.6317 H   0  0  0  0  0  0  0  0  0  0  0  0
   -0.5397    0.5514   -2.2223 H   0  0  0  0  0  0  0  0  0  0  0  0
   -2.5601    1.2867   -0.8290 H   0  0  0  0  0  0  0  0  0  0  0  0
   -2.6399   -0.5574   -0.7288 H   0  0  0  0  0  0  0  0  0  0  0  0
   -0.7932   -1.5802    1.0517 H   0  0  0  0  0  0  0  0  0  0  0  0
    0.1208   -0.2214    1.8599 H   0  0  0  0  0  0  0  0  0  0  0  0
  1  2  2  0
  2  3  1  0
  3  4  1  0
  4  5  2  0
  5  6  1  0
  6  7  1  0
  7  8  2  0
  7  9  1  0
  9  4  1  0
  2 10  1  0
  3 11  1  0
  3 12  1  0
  5 13  1  0
  6 14  1  0
  6 15  1  0
  9 16  1  0
  9 17  1  0
M  END
