
     RDKit          3D

 13 13  0  0  0  0  0  0  0  0999 V2000
    3.7258    0.2269   -1.0747 O   0  0  0  0  0  0  0  0  0  0  0  0
    3.0758   -0.5802   -0.3570 C   0  0  0  0  0  0  0  0  0  0  0  0
    1.6543   -0.5003   -0.1824 C   0  0  0  0  0  0  0  0  0  0  0  0
    0.4604   -0.4493   -0.0222 C   0  0  0  0  0  0  0  0  0  0  0  0
   -0.9741   -0.3634    0.1772 C   0  0  0  0  0  0  0  0  0  0  0  0
   -1.7249    0.3415   -0.9614 C   0  0  0  0  0  0  0  0  0  0  0  0
   -2.5997    0.7623    0.1016 O   0  0  0  0  0  0  0  0  0  0  0  0
   -1.4476    0.8547    0.8486 C   0  0  0  0  0  0  0  0  0  0  0  0
   -1.0517    1.6527    1.6997 O   0  0  0  0  0  0  0  0  0  0  0  0
    3.6109   -1.3874    0.1656 H   0  0  0  0  0  0  0  0  0  0  0  0
   -1.4646   -1.3090    0.4869 H   0  0  0  0  0  0  0  0  0  0  0  0
   -2.1497   -0.3960   -1.6449 H   0  0  0  0  0  0  0  0  0  0  0  0
   -1.1149    1.1474   -1.3782 H   0  0  0  0  0  0  0  0  0  0  0  0
  1  2  2  0
  2  3  1  0
  3  4  3  0
  4  5  1  0
  5  6  1  0
  6  7  1  0
  7  8  1  0
  8  9  2  0
  8  5  1  0
  2 10  1  0
  5 11  1  0
  6 12  1  0
  6 13  1  0
M  END
