
     RDKit          3D

 13 13  0  0  0  0  0  0  0  0999 V2000
    2.9544   -0.4167    0.4030 O   0  0  0  0  0  0  0  0  0  0  0  0
    1.9804   -0.0278   -0.2032 C   0  0  0  0  0  0  0  0  0  0  0  0
    0.5854   -0.4422    0.1252 C   0  0  0  0  0  0  0  0  0  0  0  0
   -0.3313   -0.6447   -1.0286 C   0  0  0  0  0  0  0  0  0  0  0  0
   -0.4801    0.5756   -0.0930 C   0  0  0  0  0  0  0  0  0  0  0  0
   -1.7091    0.5614    0.7412 C   0  0  0  0  0  0  0  0  0  0  0  0
   -2.3573    1.5790    0.8915 O   0  0  0  0  0  0  0  0  0  0  0  0
    2.1780    0.6659   -1.0320 H   0  0  0  0  0  0  0  0  0  0  0  0
    0.5313   -1.1423    0.9806 H   0  0  0  0  0  0  0  0  0  0  0  0
   -1.1056   -1.4372   -0.9302 H   0  0  0  0  0  0  0  0  0  0  0  0
   -0.0092   -0.4635   -2.0557 H   0  0  0  0  0  0  0  0  0  0  0  0
   -0.1713    1.5231   -0.5691 H   0  0  0  0  0  0  0  0  0  0  0  0
   -2.0657   -0.3307    1.2341 H   0  0  0  0  0  0  0  0  0  0  0  0
  1  2  2  0
  2  3  1  0
  3  4  1  0
  4  5  1  0
  5  6  1  0
  6  7  2  0
  5  3  1  0
  2  8  1  0
  3  9  1  0
  4 10  1  0
  4 11  1  0
  5 12  1  0
  6 13  1  0
M  END
