
     RDKit          3D

 13 14  0  0  0  0  0  0  0  0999 V2000
    2.4121   -0.8389    0.8400 O   0  0  0  0  0  0  0  0  0  0  0  0
    1.6955    0.0335    0.3911 C   0  0  0  0  0  0  0  0  0  0  0  0
    0.5314   -0.3286   -0.4651 C   0  0  0  0  0  0  0  0  0  0  0  0
   -0.6315   -0.8444    0.3792 C   0  0  0  0  0  0  0  0  0  0  0  0
   -1.2620    0.4939    0.3829 C   0  0  0  0  0  0  0  0  0  0  0  0
   -0.5439    1.6624    0.3854 O   0  0  0  0  0  0  0  0  0  0  0  0
   -0.3063    0.8945   -0.7308 C   0  0  0  0  0  0  0  0  0  0  0  0
    1.9426    1.0579    0.6406 H   0  0  0  0  0  0  0  0  0  0  0  0
    0.7692   -0.9372   -1.3495 H   0  0  0  0  0  0  0  0  0  0  0  0
   -0.3215   -1.2940    1.3180 H   0  0  0  0  0  0  0  0  0  0  0  0
   -1.1857   -1.6067   -0.2399 H   0  0  0  0  0  0  0  0  0  0  0  0
   -2.3508    0.6151    0.1446 H   0  0  0  0  0  0  0  0  0  0  0  0
   -0.7490    1.0925   -1.6965 H   0  0  0  0  0  0  0  0  0  0  0  0
  1  2  2  0
  2  3  1  0
  3  4  1  0
  4  5  1  0
  5  6  1  0
  6  7  1  0
  7  3  1  0
  7  5  1  0
  2  8  1  0
  3  9  1  0
  4 10  1  0
  4 11  1  0
  5 12  1  0
  7 13  1  0
M  END
