
     RDKit          3D

 17 17  0  0  0  0  0  0  0  0999 V2000
    3.5834    0.5667    1.9778 O   0  0  0  0  0  0  0  0  0  0  0  0
    3.2394    0.0997    0.9199 C   0  0  0  0  0  0  0  0  0  0  0  0
    2.4139    0.9071   -0.0118 C   0  0  0  0  0  0  0  0  0  0  0  0
    1.0987    0.3440   -0.1514 C   0  0  0  0  0  0  0  0  0  0  0  0
   -0.0138   -0.1133   -0.2728 C   0  0  0  0  0  0  0  0  0  0  0  0
   -1.3694   -0.6448   -0.4108 C   0  0  0  0  0  0  0  0  0  0  0  0
   -1.5161   -2.0168   -0.2710 O   0  0  0  0  0  0  0  0  0  0  0  0
   -2.3342    0.0633   -1.3333 C   0  0  0  0  0  0  0  0  0  0  0  0
   -2.5277    0.1379    0.1389 C   0  0  0  0  0  0  0  0  0  0  0  0
    3.5161   -0.8912    0.6330 H   0  0  0  0  0  0  0  0  0  0  0  0
    2.9474    0.9630   -0.9925 H   0  0  0  0  0  0  0  0  0  0  0  0
    2.3696    1.9755    0.3316 H   0  0  0  0  0  0  0  0  0  0  0  0
   -0.8048   -2.5141   -0.7710 H   0  0  0  0  0  0  0  0  0  0  0  0
   -1.8604    0.9199   -1.8699 H   0  0  0  0  0  0  0  0  0  0  0  0
   -3.0229   -0.5103   -1.9882 H   0  0  0  0  0  0  0  0  0  0  0  0
   -2.2849    1.0891    0.6824 H   0  0  0  0  0  0  0  0  0  0  0  0
   -3.4343   -0.3757    0.5217 H   0  0  0  0  0  0  0  0  0  0  0  0
  1  2  2  0
  2  3  1  0
  3  4  1  0
  4  5  3  0
  5  6  1  0
  6  7  1  0
  6  8  1  0
  8  9  1  0
  9  6  1  0
  2 10  1  0
  3 11  1  0
  3 12  1  0
  7 13  1  0
  8 14  1  0
  8 15  1  0
  9 16  1  0
  9 17  1  0
M  END
