
     RDKit          3D

 19 19  0  0  0  0  0  0  0  0999 V2000
    3.1202    0.6190    0.6596 O   0  0  0  0  0  0  0  0  0  0  0  0
    2.3644   -0.3726    0.7099 C   0  0  0  0  0  0  0  0  0  0  0  0
    0.9914   -0.3211    0.2525 C   0  0  0  0  0  0  0  0  0  0  0  0
    0.2641   -1.4181    0.3432 C   0  0  0  0  0  0  0  0  0  0  0  0
   -1.1470   -1.3953   -0.1180 C   0  0  0  0  0  0  0  0  0  0  0  0
   -1.7274   -0.0644    0.2895 C   0  0  0  0  0  0  0  0  0  0  0  0
   -0.9858    1.1007   -0.2900 C   0  0  0  0  0  0  0  0  0  0  0  0
    0.4940    0.9597   -0.2871 C   0  0  0  0  0  0  0  0  0  0  0  0
    0.9713    1.1025   -1.5930 O   0  0  0  0  0  0  0  0  0  0  0  0
    2.7520   -1.2903    1.1065 H   0  0  0  0  0  0  0  0  0  0  0  0
    0.6518   -2.3462    0.7430 H   0  0  0  0  0  0  0  0  0  0  0  0
   -1.2337   -1.5277   -1.2165 H   0  0  0  0  0  0  0  0  0  0  0  0
   -1.7641   -2.1782    0.3903 H   0  0  0  0  0  0  0  0  0  0  0  0
   -1.6246   -0.0012    1.3996 H   0  0  0  0  0  0  0  0  0  0  0  0
   -2.7933    0.0361    0.0606 H   0  0  0  0  0  0  0  0  0  0  0  0
   -1.3006    2.0048    0.3091 H   0  0  0  0  0  0  0  0  0  0  0  0
   -1.3986    1.3026   -1.3181 H   0  0  0  0  0  0  0  0  0  0  0  0
    0.9460    1.8120    0.2979 H   0  0  0  0  0  0  0  0  0  0  0  0
    1.4201    1.9777   -1.7392 H   0  0  0  0  0  0  0  0  0  0  0  0
  1  2  2  0
  2  3  1  0
  3  4  2  0
  4  5  1  0
  5  6  1  0
  6  7  1  0
  7  8  1  0
  8  9  1  0
  8  3  1  0
  2 10  1  0
  4 11  1  0
  5 12  1  0
  5 13  1  0
  6 14  1  0
  6 15  1  0
  7 16  1  0
  7 17  1  0
  8 18  1  0
  9 19  1  0
M  END
