
     RDKit          3D

 19 20  0  0  0  0  0  0  0  0999 V2000
   -2.5078    0.6118    1.3658 O   0  0  0  0  0  0  0  0  0  0  0  0
   -1.4728    0.8744    0.7763 C   0  0  0  0  0  0  0  0  0  0  0  0
   -1.2191    0.2064   -0.5062 C   0  0  0  0  0  0  0  0  0  0  0  0
   -1.0000   -1.2932   -0.2968 C   0  0  0  0  0  0  0  0  0  0  0  0
    0.4820   -1.0027   -0.4493 C   0  0  0  0  0  0  0  0  0  0  0  0
    1.1340   -0.5722    0.8080 C   0  0  0  0  0  0  0  0  0  0  0  0
    1.6440    0.7894    0.5664 C   0  0  0  0  0  0  0  0  0  0  0  0
    1.0854    1.2989   -0.5028 C   0  0  0  0  0  0  0  0  0  0  0  0
    0.1457    0.3433   -1.0949 C   0  0  0  0  0  0  0  0  0  0  0  0
   -0.8107    1.5787    1.2328 H   0  0  0  0  0  0  0  0  0  0  0  0
   -2.0035    0.3754   -1.2582 H   0  0  0  0  0  0  0  0  0  0  0  0
   -1.2561   -1.6648    0.6983 H   0  0  0  0  0  0  0  0  0  0  0  0
   -1.4412   -1.9291   -1.0819 H   0  0  0  0  0  0  0  0  0  0  0  0
    0.9869   -1.7187   -1.0960 H   0  0  0  0  0  0  0  0  0  0  0  0
    1.9435   -1.2882    1.0722 H   0  0  0  0  0  0  0  0  0  0  0  0
    0.3865   -0.4908    1.6368 H   0  0  0  0  0  0  0  0  0  0  0  0
    2.4017    1.2868    1.2244 H   0  0  0  0  0  0  0  0  0  0  0  0
    1.2884    2.2882   -0.8960 H   0  0  0  0  0  0  0  0  0  0  0  0
    0.2131    0.3064   -2.1987 H   0  0  0  0  0  0  0  0  0  0  0  0
  1  2  2  0
  2  3  1  0
  3  4  1  0
  4  5  1  0
  5  6  1  0
  6  7  1  0
  7  8  2  0
  8  9  1  0
  9  3  1  0
  9  5  1  0
  2 10  1  0
  3 11  1  0
  4 12  1  0
  4 13  1  0
  5 14  1  0
  6 15  1  0
  6 16  1  0
  7 17  1  0
  8 18  1  0
  9 19  1  0
M  END
