
     RDKit          3D

 16 17  0  0  0  0  0  0  0  0999 V2000
    2.8850   -0.3886    0.9188 O   0  0  0  0  0  0  0  0  0  0  0  0
    2.3247   -0.2115   -0.1482 C   0  0  0  0  0  0  0  0  0  0  0  0
    0.9224    0.2393   -0.1237 C   0  0  0  0  0  0  0  0  0  0  0  0
    0.3882    0.4073   -1.4008 O   0  0  0  0  0  0  0  0  0  0  0  0
   -0.9175    0.8110   -1.0756 C   0  0  0  0  0  0  0  0  0  0  0  0
   -1.3587   -0.3099   -0.1727 C   0  0  0  0  0  0  0  0  0  0  0  0
   -1.1151   -0.2505    1.2989 C   0  0  0  0  0  0  0  0  0  0  0  0
   -0.0251   -0.7534    0.4680 C   0  0  0  0  0  0  0  0  0  0  0  0
    2.8619   -0.3867   -1.0525 H   0  0  0  0  0  0  0  0  0  0  0  0
    0.8417    1.2210    0.3945 H   0  0  0  0  0  0  0  0  0  0  0  0
   -0.8163    1.7758   -0.5487 H   0  0  0  0  0  0  0  0  0  0  0  0
   -1.5352    0.8628   -1.9839 H   0  0  0  0  0  0  0  0  0  0  0  0
   -2.0104   -1.0804   -0.5935 H   0  0  0  0  0  0  0  0  0  0  0  0
   -0.9412    0.7721    1.7461 H   0  0  0  0  0  0  0  0  0  0  0  0
   -1.7643   -0.9034    1.9055 H   0  0  0  0  0  0  0  0  0  0  0  0
    0.2597   -1.8049    0.3678 H   0  0  0  0  0  0  0  0  0  0  0  0
  1  2  2  0
  2  3  1  0
  3  4  1  0
  4  5  1  0
  5  6  1  0
  6  7  1  0
  7  8  1  0
  8  3  1  0
  8  6  1  0
  2  9  1  0
  3 10  1  0
  5 11  1  0
  5 12  1  0
  6 13  1  0
  7 14  1  0
  7 15  1  0
  8 16  1  0
M  END
