
     RDKit          3D

 15 15  0  0  0  0  0  0  0  0999 V2000
   -2.0343    1.2099    1.2161 O   0  0  0  0  0  0  0  0  0  0  0  0
   -1.9813    0.3252    0.3795 C   0  0  0  0  0  0  0  0  0  0  0  0
   -0.8103    0.0382   -0.4820 C   0  0  0  0  0  0  0  0  0  0  0  0
    0.1479    1.1431   -0.3331 C   0  0  0  0  0  0  0  0  0  0  0  0
    1.4322    0.9398   -0.3648 C   0  0  0  0  0  0  0  0  0  0  0  0
    1.9835   -0.3931   -0.5497 C   0  0  0  0  0  0  0  0  0  0  0  0
    3.2484   -0.5835   -0.5796 O   0  0  0  0  0  0  0  0  0  0  0  0
    1.0901   -1.4387   -0.6909 O   0  0  0  0  0  0  0  0  0  0  0  0
   -0.1670   -1.2894   -0.0546 C   0  0  0  0  0  0  0  0  0  0  0  0
   -2.8642   -0.2920    0.2661 H   0  0  0  0  0  0  0  0  0  0  0  0
   -1.0938   -0.1046   -1.5487 H   0  0  0  0  0  0  0  0  0  0  0  0
   -0.2338    2.1370   -0.1954 H   0  0  0  0  0  0  0  0  0  0  0  0
    2.1673    1.7574   -0.2546 H   0  0  0  0  0  0  0  0  0  0  0  0
   -0.7890   -2.1434   -0.3810 H   0  0  0  0  0  0  0  0  0  0  0  0
   -0.0955   -1.3060    1.0383 H   0  0  0  0  0  0  0  0  0  0  0  0
  1  2  2  0
  2  3  1  0
  3  4  1  0
  4  5  2  0
  5  6  1  0
  6  7  2  0
  6  8  1  0
  8  9  1  0
  9  3  1  0
  2 10  1  0
  3 11  1  0
  4 12  1  0
  5 13  1  0
  9 14  1  0
  9 15  1  0
M  END
