
     RDKit          3D

 19 19  0  0  0  0  0  0  0  0999 V2000
    3.4531   -0.1203    0.7856 O   0  0  0  0  0  0  0  0  0  0  0  0
    2.2428   -0.0784    0.6643 C   0  0  0  0  0  0  0  0  0  0  0  0
    1.6664   -0.0298   -0.6824 C   0  0  0  0  0  0  0  0  0  0  0  0
    0.1838    0.0396   -0.6420 C   0  0  0  0  0  0  0  0  0  0  0  0
   -0.4750   -1.1235    0.0421 C   0  0  0  0  0  0  0  0  0  0  0  0
   -1.9253   -0.6184    0.1264 C   0  0  0  0  0  0  0  0  0  0  0  0
   -1.8164    0.8580    0.1523 C   0  0  0  0  0  0  0  0  0  0  0  0
   -2.7316    1.6366    0.1622 O   0  0  0  0  0  0  0  0  0  0  0  0
   -0.3736    1.1953    0.1636 C   0  0  0  0  0  0  0  0  0  0  0  0
    1.6024   -0.0773    1.5355 H   0  0  0  0  0  0  0  0  0  0  0  0
    1.9795   -0.8469   -1.3388 H   0  0  0  0  0  0  0  0  0  0  0  0
    2.0219    0.9290   -1.1527 H   0  0  0  0  0  0  0  0  0  0  0  0
   -0.2748    0.1395   -1.6555 H   0  0  0  0  0  0  0  0  0  0  0  0
   -0.4092   -2.0672   -0.4961 H   0  0  0  0  0  0  0  0  0  0  0  0
   -0.1377   -1.1904    1.1101 H   0  0  0  0  0  0  0  0  0  0  0  0
   -2.4001   -0.9854    1.0667 H   0  0  0  0  0  0  0  0  0  0  0  0
   -2.4862   -1.0121   -0.7327 H   0  0  0  0  0  0  0  0  0  0  0  0
    0.0448    1.1785    1.2055 H   0  0  0  0  0  0  0  0  0  0  0  0
   -0.1648    2.1731   -0.3140 H   0  0  0  0  0  0  0  0  0  0  0  0
  1  2  2  0
  2  3  1  0
  3  4  1  0
  4  5  1  0
  5  6  1  0
  6  7  1  0
  7  8  2  0
  7  9  1  0
  9  4  1  0
  2 10  1  0
  3 11  1  0
  3 12  1  0
  4 13  1  0
  5 14  1  0
  5 15  1  0
  6 16  1  0
  6 17  1  0
  9 18  1  0
  9 19  1  0
M  END
