
     RDKit          3D

 17 18  0  0  0  0  0  0  0  0999 V2000
    3.2576    0.9709    0.1655 O   0  0  0  0  0  0  0  0  0  0  0  0
    2.4826   -0.0190    0.1706 C   0  0  0  0  0  0  0  0  0  0  0  0
    1.0369    0.0898    0.2184 C   0  0  0  0  0  0  0  0  0  0  0  0
    0.4126    1.2535    0.2610 C   0  0  0  0  0  0  0  0  0  0  0  0
   -1.0786    1.3433    0.3100 C   0  0  0  0  0  0  0  0  0  0  0  0
   -1.7324    0.4357    1.1305 O   0  0  0  0  0  0  0  0  0  0  0  0
   -1.7635    0.2460   -0.2802 C   0  0  0  0  0  0  0  0  0  0  0  0
   -0.9607   -0.9371   -0.7210 C   0  0  0  0  0  0  0  0  0  0  0  0
    0.2135   -1.1410    0.2203 C   0  0  0  0  0  0  0  0  0  0  0  0
    2.9324   -0.9969    0.1371 H   0  0  0  0  0  0  0  0  0  0  0  0
    1.0347    2.1447    0.2588 H   0  0  0  0  0  0  0  0  0  0  0  0
   -1.4714    2.3599    0.2377 H   0  0  0  0  0  0  0  0  0  0  0  0
   -2.7408    0.4029   -0.7835 H   0  0  0  0  0  0  0  0  0  0  0  0
   -0.6060   -0.8812   -1.7619 H   0  0  0  0  0  0  0  0  0  0  0  0
   -1.5947   -1.8672   -0.6351 H   0  0  0  0  0  0  0  0  0  0  0  0
   -0.1955   -1.3827    1.2147 H   0  0  0  0  0  0  0  0  0  0  0  0
    0.7733   -2.0216   -0.1429 H   0  0  0  0  0  0  0  0  0  0  0  0
  1  2  2  0
  2  3  1  0
  3  4  2  0
  4  5  1  0
  5  6  1  0
  6  7  1  0
  7  8  1  0
  8  9  1  0
  9  3  1  0
  7  5  1  0
  2 10  1  0
  4 11  1  0
  5 12  1  0
  7 13  1  0
  8 14  1  0
  8 15  1  0
  9 16  1  0
  9 17  1  0
M  END
