
     RDKit          3D

 17 18  0  0  0  0  0  0  0  0999 V2000
   -2.4044    0.6576    1.4170 O   0  0  0  0  0  0  0  0  0  0  0  0
   -1.4982    1.2084    0.8167 C   0  0  0  0  0  0  0  0  0  0  0  0
   -0.5934    0.4375   -0.0720 C   0  0  0  0  0  0  0  0  0  0  0  0
   -1.2445   -0.5760   -0.9554 C   0  0  0  0  0  0  0  0  0  0  0  0
   -0.9601   -1.5539    0.0007 O   0  0  0  0  0  0  0  0  0  0  0  0
   -0.0198   -0.7521    0.6138 C   0  0  0  0  0  0  0  0  0  0  0  0
    1.3793   -0.8290    0.0478 C   0  0  0  0  0  0  0  0  0  0  0  0
    1.6243    0.6264   -0.3014 C   0  0  0  0  0  0  0  0  0  0  0  0
    0.3883    1.1315   -0.7010 O   0  0  0  0  0  0  0  0  0  0  0  0
   -1.3575    2.2667    0.9366 H   0  0  0  0  0  0  0  0  0  0  0  0
   -0.6617   -0.7788   -1.8877 H   0  0  0  0  0  0  0  0  0  0  0  0
   -2.3130   -0.3769   -1.1298 H   0  0  0  0  0  0  0  0  0  0  0  0
   -0.0789   -0.7173    1.7182 H   0  0  0  0  0  0  0  0  0  0  0  0
    1.3474   -1.4689   -0.8559 H   0  0  0  0  0  0  0  0  0  0  0  0
    2.1289   -1.1487    0.7895 H   0  0  0  0  0  0  0  0  0  0  0  0
    2.3832    0.7339   -1.0844 H   0  0  0  0  0  0  0  0  0  0  0  0
    1.8801    1.1397    0.6472 H   0  0  0  0  0  0  0  0  0  0  0  0
  1  2  2  0
  2  3  1  0
  3  4  1  0
  4  5  1  0
  5  6  1  0
  6  7  1  0
  7  8  1  0
  8  9  1  0
  6  3  1  0
  9  3  1  0
  2 10  1  0
  4 11  1  0
  4 12  1  0
  6 13  1  0
  7 14  1  0
  7 15  1  0
  8 16  1  0
  8 17  1  0
M  END
