
     RDKit          3D

 19 20  0  0  0  0  0  0  0  0999 V2000
    2.8913   -2.0111   -0.9791 O   0  0  0  0  0  0  0  0  0  0  0  0
    2.5286   -1.0468   -0.3402 C   0  0  0  0  0  0  0  0  0  0  0  0
    1.1793   -0.4699   -0.5482 C   0  0  0  0  0  0  0  0  0  0  0  0
    1.0784    1.0426   -0.4172 C   0  0  0  0  0  0  0  0  0  0  0  0
    0.4902    0.1616    0.6132 C   0  0  0  0  0  0  0  0  0  0  0  0
   -1.0162    0.1644    0.6927 C   0  0  0  0  0  0  0  0  0  0  0  0
   -1.5051    0.7943    1.8414 O   0  0  0  0  0  0  0  0  0  0  0  0
   -1.8085   -0.9146    0.1078 C   0  0  0  0  0  0  0  0  0  0  0  0
   -1.8156    0.4362   -0.5412 C   0  0  0  0  0  0  0  0  0  0  0  0
    3.2105   -0.6230    0.3789 H   0  0  0  0  0  0  0  0  0  0  0  0
    0.5456   -0.9758   -1.3127 H   0  0  0  0  0  0  0  0  0  0  0  0
    0.4223    1.6016   -1.1065 H   0  0  0  0  0  0  0  0  0  0  0  0
    2.0098    1.5747   -0.1109 H   0  0  0  0  0  0  0  0  0  0  0  0
    0.9958    0.0003    1.5856 H   0  0  0  0  0  0  0  0  0  0  0  0
   -1.0509    1.6634    1.9250 H   0  0  0  0  0  0  0  0  0  0  0  0
   -2.6896   -1.2684    0.6615 H   0  0  0  0  0  0  0  0  0  0  0  0
   -1.3430   -1.7092   -0.5195 H   0  0  0  0  0  0  0  0  0  0  0  0
   -1.3188    0.6122   -1.4989 H   0  0  0  0  0  0  0  0  0  0  0  0
   -2.8040    0.9675   -0.4319 H   0  0  0  0  0  0  0  0  0  0  0  0
  1  2  2  0
  2  3  1  0
  3  4  1  0
  4  5  1  0
  5  6  1  0
  6  7  1  0
  6  8  1  0
  8  9  1  0
  5  3  1  0
  9  6  1  0
  2 10  1  0
  3 11  1  0
  4 12  1  0
  4 13  1  0
  5 14  1  0
  7 15  1  0
  8 16  1  0
  8 17  1  0
  9 18  1  0
  9 19  1  0
M  END
