
     RDKit          3D

 15 15  0  0  0  0  0  0  0  0999 V2000
   -1.2586    2.4031   -0.5264 O   0  0  0  0  0  0  0  0  0  0  0  0
   -1.8530    1.4016   -0.7593 C   0  0  0  0  0  0  0  0  0  0  0  0
   -1.2202    0.0520   -0.4844 C   0  0  0  0  0  0  0  0  0  0  0  0
   -0.0464   -0.1144   -0.4365 C   0  0  0  0  0  0  0  0  0  0  0  0
    1.3570   -0.3266   -0.3772 C   0  0  0  0  0  0  0  0  0  0  0  0
    2.7679   -0.5230   -0.3362 C   0  0  0  0  0  0  0  0  0  0  0  0
    3.3896    0.6881   -0.1889 O   0  0  0  0  0  0  0  0  0  0  0  0
   -2.2355   -1.0134    0.0957 C   0  0  0  0  0  0  0  0  0  0  0  0
   -1.7748   -0.0753    1.0623 O   0  0  0  0  0  0  0  0  0  0  0  0
   -2.8836    1.4792   -1.1410 H   0  0  0  0  0  0  0  0  0  0  0  0
    3.1063   -1.1900   -1.1362 H   0  0  0  0  0  0  0  0  0  0  0  0
    2.8840   -1.1030    0.6734 H   0  0  0  0  0  0  0  0  0  0  0  0
    2.8541    1.3962   -0.5932 H   0  0  0  0  0  0  0  0  0  0  0  0
   -1.7364   -2.0328    0.1754 H   0  0  0  0  0  0  0  0  0  0  0  0
   -3.3504   -1.0416   -0.0926 H   0  0  0  0  0  0  0  0  0  0  0  0
  1  2  2  0
  2  3  1  0
  3  4  1  0
  4  5  3  0
  5  6  1  0
  6  7  1  0
  3  8  1  0
  8  9  1  0
  9  3  1  0
  2 10  1  0
  6 11  1  0
  6 12  1  0
  7 13  1  0
  8 14  1  0
  8 15  1  0
M  END
