
     RDKit          3D

 19 20  0  0  0  0  0  0  0  0999 V2000
   -0.4016   -1.2997    2.3705 O   0  0  0  0  0  0  0  0  0  0  0  0
   -0.9910   -1.4280    1.2875 C   0  0  0  0  0  0  0  0  0  0  0  0
   -0.4619   -0.6707    0.1455 C   0  0  0  0  0  0  0  0  0  0  0  0
    0.1938   -1.2931   -1.0066 C   0  0  0  0  0  0  0  0  0  0  0  0
    1.0455   -0.6559    0.0465 C   0  0  0  0  0  0  0  0  0  0  0  0
    1.4679    0.7731   -0.0576 C   0  0  0  0  0  0  0  0  0  0  0  0
    0.2593    1.6296    0.2246 C   0  0  0  0  0  0  0  0  0  0  0  0
   -0.9327    0.7461   -0.0217 C   0  0  0  0  0  0  0  0  0  0  0  0
   -1.3889    1.0058   -1.3190 O   0  0  0  0  0  0  0  0  0  0  0  0
   -1.8343   -2.0832    1.2903 H   0  0  0  0  0  0  0  0  0  0  0  0
    0.2711   -2.3831   -1.1535 H   0  0  0  0  0  0  0  0  0  0  0  0
    0.1876   -0.7327   -1.9697 H   0  0  0  0  0  0  0  0  0  0  0  0
    1.6440   -1.3457    0.6492 H   0  0  0  0  0  0  0  0  0  0  0  0
    1.9096    1.0406   -1.0413 H   0  0  0  0  0  0  0  0  0  0  0  0
    2.2211    0.9678    0.7429 H   0  0  0  0  0  0  0  0  0  0  0  0
    0.2816    2.5152   -0.4721 H   0  0  0  0  0  0  0  0  0  0  0  0
    0.2828    1.9861    1.2819 H   0  0  0  0  0  0  0  0  0  0  0  0
   -1.7756    0.9361    0.6639 H   0  0  0  0  0  0  0  0  0  0  0  0
   -1.9782    0.2916   -1.6613 H   0  0  0  0  0  0  0  0  0  0  0  0
  1  2  2  0
  2  3  1  0
  3  4  1  0
  4  5  1  0
  5  6  1  0
  6  7  1  0
  7  8  1  0
  8  9  1  0
  5  3  1  0
  8  3  1  0
  2 10  1  0
  4 11  1  0
  4 12  1  0
  5 13  1  0
  6 14  1  0
  6 15  1  0
  7 16  1  0
  7 17  1  0
  8 18  1  0
  9 19  1  0
M  END
