
     RDKit          3D

 19 20  0  0  0  0  0  0  0  0999 V2000
    2.3688   -0.5708    1.0764 O   0  0  0  0  0  0  0  0  0  0  0  0
    2.2836   -0.2227   -0.0706 C   0  0  0  0  0  0  0  0  0  0  0  0
    1.0098   -0.2321   -0.8008 C   0  0  0  0  0  0  0  0  0  0  0  0
    0.2393    1.0938   -0.6239 C   0  0  0  0  0  0  0  0  0  0  0  0
   -1.0457    0.5546   -0.0692 C   0  0  0  0  0  0  0  0  0  0  0  0
   -2.0539    1.3566    0.2377 O   0  0  0  0  0  0  0  0  0  0  0  0
   -0.5726   -0.4659    0.9720 C   0  0  0  0  0  0  0  0  0  0  0  0
   -0.0129   -1.1730   -0.2629 C   0  0  0  0  0  0  0  0  0  0  0  0
   -1.2873   -0.6588   -0.9476 C   0  0  0  0  0  0  0  0  0  0  0  0
    3.1933    0.1133   -0.5860 H   0  0  0  0  0  0  0  0  0  0  0  0
    1.1698   -0.4211   -1.8899 H   0  0  0  0  0  0  0  0  0  0  0  0
    0.8021    1.7321    0.0531 H   0  0  0  0  0  0  0  0  0  0  0  0
    0.1403    1.5870   -1.5992 H   0  0  0  0  0  0  0  0  0  0  0  0
   -1.7609    2.2431    0.4912 H   0  0  0  0  0  0  0  0  0  0  0  0
    0.1613   -0.0920    1.6766 H   0  0  0  0  0  0  0  0  0  0  0  0
   -1.4333   -1.0105    1.3628 H   0  0  0  0  0  0  0  0  0  0  0  0
    0.1443   -2.2151   -0.2229 H   0  0  0  0  0  0  0  0  0  0  0  0
   -2.1797   -1.2085   -0.6431 H   0  0  0  0  0  0  0  0  0  0  0  0
   -1.1663   -0.4101   -2.0014 H   0  0  0  0  0  0  0  0  0  0  0  0
  1  2  2  0
  2  3  1  0
  3  4  1  0
  4  5  1  0
  5  6  1  0
  5  7  1  0
  7  8  1  0
  8  9  1  0
  8  3  1  0
  9  5  1  0
  2 10  1  0
  3 11  1  0
  4 12  1  0
  4 13  1  0
  6 14  1  0
  7 15  1  0
  7 16  1  0
  8 17  1  0
  9 18  1  0
  9 19  1  0
M  END
