
     RDKit          2D

 17 19  0  0  0  0  0  0  0  0999 V2000
    2.5447   -1.2275    0.0000 O   0  0  0  0  0  0  0  0  0  0  0  0
    1.7477   -1.2135    0.0000 C   0  0  0  0  0  0  0  0  0  0  0  0
    0.8660    0.0000    0.0000 C   0  0  0  0  0  0  0  0  0  0  0  0
    1.9807    1.0037    0.0000 C   0  0  0  0  0  0  0  0  0  0  0  0
    1.3706    2.3740    0.0000 C   0  0  0  0  0  0  0  0  0  0  0  0
   -0.1211    2.2172    0.0000 C   0  0  0  0  0  0  0  0  0  0  0  0
   -0.4330    0.7500    0.0000 C   0  0  0  0  0  0  0  0  0  0  0  0
   -0.4330   -0.7500    0.0000 C   0  0  0  0  0  0  0  0  0  0  0  0
    1.7461   -0.4778    0.0000 C   0  0  0  0  0  0  0  0  0  0  0  0
    0.9751   -2.4993    0.0000 H   0  0  0  0  0  0  0  0  0  0  0  0
    2.1206    3.6731    0.0000 H   0  0  0  0  0  0  0  0  0  0  0  0
   -0.1211    3.7172    0.0000 H   0  0  0  0  0  0  0  0  0  0  0  0
   -1.6129    2.3740    0.0000 H   0  0  0  0  0  0  0  0  0  0  0  0
   -1.9248    0.9068    0.0000 H   0  0  0  0  0  0  0  0  0  0  0  0
   -1.1830   -2.0490    0.0000 H   0  0  0  0  0  0  0  0  0  0  0  0
    2.5428   -0.5056    0.0000 H   0  0  0  0  0  0  0  0  0  0  0  0
    2.0581   -1.9450    0.0000 H   0  0  0  0  0  0  0  0  0  0  0  0
  1  2  2  0
  2  3  1  0
  3  4  1  0
  4  5  2  0
  5  6  1  0
  6  7  1  0
  7  8  1  0
  8  9  1  0
  7  3  1  0
  8  3  1  0
  9  4  1  0
  2 10  1  0
  5 11  1  0
  6 12  1  0
  6 13  1  0
  7 14  1  0
  8 15  1  0
  9 16  1  0
  9 17  1  0
M  END
