
     RDKit          3D

 19 20  0  0  0  0  0  0  0  0999 V2000
   -2.0229    0.8303   -1.8774 O   0  0  0  0  0  0  0  0  0  0  0  0
   -2.1845    0.2691   -0.8173 C   0  0  0  0  0  0  0  0  0  0  0  0
   -1.0233   -0.0552    0.0242 C   0  0  0  0  0  0  0  0  0  0  0  0
   -1.3753   -0.6929    1.1978 O   0  0  0  0  0  0  0  0  0  0  0  0
   -0.1926    1.1546    0.3882 C   0  0  0  0  0  0  0  0  0  0  0  0
    1.0732    0.4861    0.9228 C   0  0  0  0  0  0  0  0  0  0  0  0
    2.1935    0.3014    0.0024 C   0  0  0  0  0  0  0  0  0  0  0  0
    1.1869   -0.8286    0.1827 C   0  0  0  0  0  0  0  0  0  0  0  0
    0.0174   -0.8770   -0.7481 C   0  0  0  0  0  0  0  0  0  0  0  0
   -3.1792    0.0196   -0.5143 H   0  0  0  0  0  0  0  0  0  0  0  0
   -1.7858   -1.5883    1.0268 H   0  0  0  0  0  0  0  0  0  0  0  0
   -0.6534    1.8015    1.1354 H   0  0  0  0  0  0  0  0  0  0  0  0
    0.0854    1.7474   -0.5141 H   0  0  0  0  0  0  0  0  0  0  0  0
    1.1436    0.4119    2.0096 H   0  0  0  0  0  0  0  0  0  0  0  0
    3.1942    0.1240    0.4417 H   0  0  0  0  0  0  0  0  0  0  0  0
    2.1577    0.7981   -0.9813 H   0  0  0  0  0  0  0  0  0  0  0  0
    1.4849   -1.7108    0.7467 H   0  0  0  0  0  0  0  0  0  0  0  0
    0.2417   -0.3005   -1.6707 H   0  0  0  0  0  0  0  0  0  0  0  0
   -0.3614   -1.8905   -0.9552 H   0  0  0  0  0  0  0  0  0  0  0  0
  1  2  2  0
  2  3  1  0
  3  4  1  0
  3  5  1  0
  5  6  1  0
  6  7  1  0
  7  8  1  0
  8  9  1  0
  9  3  1  0
  8  6  1  0
  2 10  1  0
  4 11  1  0
  5 12  1  0
  5 13  1  0
  6 14  1  0
  7 15  1  0
  7 16  1  0
  8 17  1  0
  9 18  1  0
  9 19  1  0
M  END
