
     RDKit          3D

 19 18  0  0  0  0  0  0  0  0999 V2000
   -2.6046   -0.9659    1.5204 O   0  0  0  0  0  0  0  0  0  0  0  0
   -2.2092   -0.9006    0.3527 C   0  0  0  0  0  0  0  0  0  0  0  0
   -1.7541    0.3914   -0.2266 C   0  0  0  0  0  0  0  0  0  0  0  0
   -0.3070    0.6837    0.1906 C   0  0  0  0  0  0  0  0  0  0  0  0
    0.0894    1.8910   -0.3625 O   0  0  0  0  0  0  0  0  0  0  0  0
    0.5220   -0.4402   -0.3863 C   0  0  0  0  0  0  0  0  0  0  0  0
    0.0945   -1.6225    0.1878 O   0  0  0  0  0  0  0  0  0  0  0  0
    1.9835   -0.2762   -0.0590 C   0  0  0  0  0  0  0  0  0  0  0  0
    2.5070    0.9135   -0.6027 O   0  0  0  0  0  0  0  0  0  0  0  0
   -2.2150   -1.8274   -0.2078 H   0  0  0  0  0  0  0  0  0  0  0  0
   -1.8317    0.3085   -1.3223 H   0  0  0  0  0  0  0  0  0  0  0  0
   -2.3980    1.1796    0.1913 H   0  0  0  0  0  0  0  0  0  0  0  0
   -0.2723    0.7032    1.3015 H   0  0  0  0  0  0  0  0  0  0  0  0
   -0.5795    2.5652   -0.1034 H   0  0  0  0  0  0  0  0  0  0  0  0
    0.4113   -0.4111   -1.4770 H   0  0  0  0  0  0  0  0  0  0  0  0
    0.3210   -1.5524    1.1680 H   0  0  0  0  0  0  0  0  0  0  0  0
    2.5412   -1.0929   -0.5823 H   0  0  0  0  0  0  0  0  0  0  0  0
    2.2150   -0.3418    1.0085 H   0  0  0  0  0  0  0  0  0  0  0  0
    3.4866    0.7951   -0.5908 H   0  0  0  0  0  0  0  0  0  0  0  0
  1  2  2  0
  2  3  1  0
  3  4  1  0
  4  5  1  0
  4  6  1  0
  6  7  1  0
  6  8  1  0
  8  9  1  0
  2 10  1  0
  3 11  1  0
  3 12  1  0
  4 13  1  0
  5 14  1  0
  6 15  1  0
  7 16  1  0
  8 17  1  0
  8 18  1  0
  9 19  1  0
M  END
