
     RDKit          3D

 15 15  0  0  0  0  0  0  0  0999 V2000
    1.1988    1.7779   -0.8066 O   0  0  0  0  0  0  0  0  0  0  0  0
    0.2823    1.0167   -1.0698 C   0  0  0  0  0  0  0  0  0  0  0  0
   -0.0723   -0.1106   -0.1655 C   0  0  0  0  0  0  0  0  0  0  0  0
    1.1523   -0.9113    0.1974 C   0  0  0  0  0  0  0  0  0  0  0  0
    2.1535   -0.0610    0.6438 O   0  0  0  0  0  0  0  0  0  0  0  0
   -1.1254   -0.8585   -0.6204 O   0  0  0  0  0  0  0  0  0  0  0  0
   -1.9874   -0.0790    0.1408 C   0  0  0  0  0  0  0  0  0  0  0  0
   -0.8647    0.3883    0.9785 C   0  0  0  0  0  0  0  0  0  0  0  0
   -0.7948    0.9119    2.0660 O   0  0  0  0  0  0  0  0  0  0  0  0
   -0.2528    1.2098   -1.9936 H   0  0  0  0  0  0  0  0  0  0  0  0
    0.9420   -1.7124    0.9233 H   0  0  0  0  0  0  0  0  0  0  0  0
    1.4992   -1.3969   -0.7390 H   0  0  0  0  0  0  0  0  0  0  0  0
    3.0284   -0.2992    0.2205 H   0  0  0  0  0  0  0  0  0  0  0  0
   -2.7518   -0.6170    0.6982 H   0  0  0  0  0  0  0  0  0  0  0  0
   -2.4073    0.7414   -0.4735 H   0  0  0  0  0  0  0  0  0  0  0  0
  1  2  2  0
  2  3  1  0
  3  4  1  0
  4  5  1  0
  3  6  1  0
  6  7  1  0
  7  8  1  0
  8  9  2  0
  8  3  1  0
  2 10  1  0
  4 11  1  0
  4 12  1  0
  5 13  1  0
  7 14  1  0
  7 15  1  0
M  END
