
     RDKit          3D

 19 20  0  0  0  0  0  0  0  0999 V2000
   -1.8897    1.6220    0.5578 O   0  0  0  0  0  0  0  0  0  0  0  0
   -2.2407    0.6299    1.1847 C   0  0  0  0  0  0  0  0  0  0  0  0
   -1.9618   -0.7042    0.6172 C   0  0  0  0  0  0  0  0  0  0  0  0
   -2.0167   -0.7785   -0.9002 C   0  0  0  0  0  0  0  0  0  0  0  0
   -0.6969   -0.8634   -0.2457 C   0  0  0  0  0  0  0  0  0  0  0  0
    0.1626    0.2119   -0.1711 O   0  0  0  0  0  0  0  0  0  0  0  0
    1.4920   -0.1191   -0.1023 C   0  0  0  0  0  0  0  0  0  0  0  0
    2.3917    0.8054   -0.9267 C   0  0  0  0  0  0  0  0  0  0  0  0
    2.4963    0.7624    0.5546 C   0  0  0  0  0  0  0  0  0  0  0  0
   -2.7363    0.7927    2.1210 H   0  0  0  0  0  0  0  0  0  0  0  0
   -2.2884   -1.5886    1.2018 H   0  0  0  0  0  0  0  0  0  0  0  0
   -2.4543   -1.7205   -1.2758 H   0  0  0  0  0  0  0  0  0  0  0  0
   -2.3620    0.1173   -1.4396 H   0  0  0  0  0  0  0  0  0  0  0  0
   -0.1924   -1.8462   -0.2396 H   0  0  0  0  0  0  0  0  0  0  0  0
    1.7279   -1.2006   -0.1140 H   0  0  0  0  0  0  0  0  0  0  0  0
    3.1187    0.2643   -1.5640 H   0  0  0  0  0  0  0  0  0  0  0  0
    1.9535    1.7320   -1.3423 H   0  0  0  0  0  0  0  0  0  0  0  0
    2.0793    1.5954    1.1394 H   0  0  0  0  0  0  0  0  0  0  0  0
    3.4175    0.2879    0.9450 H   0  0  0  0  0  0  0  0  0  0  0  0
  1  2  2  0
  2  3  1  0
  3  4  1  0
  4  5  1  0
  5  6  1  0
  6  7  1  0
  7  8  1  0
  8  9  1  0
  5  3  1  0
  9  7  1  0
  2 10  1  0
  3 11  1  0
  4 12  1  0
  4 13  1  0
  5 14  1  0
  7 15  1  0
  8 16  1  0
  8 17  1  0
  9 18  1  0
  9 19  1  0
M  END
