
     RDKit          3D

 17 19  0  0  0  0  0  0  0  0999 V2000
    2.7582   -0.0098    1.4376 O   0  0  0  0  0  0  0  0  0  0  0  0
    2.2887    0.5179    0.4570 C   0  0  0  0  0  0  0  0  0  0  0  0
    0.9002    0.2891    0.0997 C   0  0  0  0  0  0  0  0  0  0  0  0
    0.3498    0.9026   -1.0424 O   0  0  0  0  0  0  0  0  0  0  0  0
   -0.9313    0.4093   -1.0639 C   0  0  0  0  0  0  0  0  0  0  0  0
   -1.3851    0.7231    0.3650 C   0  0  0  0  0  0  0  0  0  0  0  0
   -0.1782    0.1114    1.0945 C   0  0  0  0  0  0  0  0  0  0  0  0
    0.2331   -1.0259    0.2862 C   0  0  0  0  0  0  0  0  0  0  0  0
   -0.6784   -1.0771   -0.9473 C   0  0  0  0  0  0  0  0  0  0  0  0
    2.9156    1.1523   -0.1365 H   0  0  0  0  0  0  0  0  0  0  0  0
   -1.5890    0.7251   -1.8284 H   0  0  0  0  0  0  0  0  0  0  0  0
   -1.3943    1.8214    0.4549 H   0  0  0  0  0  0  0  0  0  0  0  0
   -2.3189    0.2259    0.6246 H   0  0  0  0  0  0  0  0  0  0  0  0
   -0.0733    0.2241    2.1575 H   0  0  0  0  0  0  0  0  0  0  0  0
    0.7335   -1.9180    0.6264 H   0  0  0  0  0  0  0  0  0  0  0  0
   -1.5701   -1.6708   -0.7743 H   0  0  0  0  0  0  0  0  0  0  0  0
   -0.0604   -1.4008   -1.8108 H   0  0  0  0  0  0  0  0  0  0  0  0
  1  2  2  0
  2  3  1  0
  3  4  1  0
  4  5  1  0
  5  6  1  0
  6  7  1  0
  7  8  1  0
  8  9  1  0
  7  3  1  0
  8  3  1  0
  9  5  1  0
  2 10  1  0
  5 11  1  0
  6 12  1  0
  6 13  1  0
  7 14  1  0
  8 15  1  0
  9 16  1  0
  9 17  1  0
M  END
