
     RDKit          3D

 21 21  0  0  0  0  0  0  0  0999 V2000
    3.6883    0.4116   -0.0046 O   0  0  0  0  0  0  0  0  0  0  0  0
    2.5856    0.8188   -0.3184 C   0  0  0  0  0  0  0  0  0  0  0  0
    1.5639   -0.1694   -0.7493 C   0  0  0  0  0  0  0  0  0  0  0  0
    0.4998   -0.2571    0.3458 C   0  0  0  0  0  0  0  0  0  0  0  0
   -0.1417    1.0722    0.5342 C   0  0  0  0  0  0  0  0  0  0  0  0
   -1.6424    1.0543    0.5381 C   0  0  0  0  0  0  0  0  0  0  0  0
   -2.0988    0.1918   -0.4119 O   0  0  0  0  0  0  0  0  0  0  0  0
   -1.8350   -1.1176   -0.0583 C   0  0  0  0  0  0  0  0  0  0  0  0
   -0.3915   -1.4162    0.1411 C   0  0  0  0  0  0  0  0  0  0  0  0
    2.3388    1.8506   -0.2895 H   0  0  0  0  0  0  0  0  0  0  0  0
    1.0478    0.1754   -1.6898 H   0  0  0  0  0  0  0  0  0  0  0  0
    1.9499   -1.1691   -0.8954 H   0  0  0  0  0  0  0  0  0  0  0  0
    1.1122   -0.4238    1.2865 H   0  0  0  0  0  0  0  0  0  0  0  0
    0.1814    1.6186    1.4430 H   0  0  0  0  0  0  0  0  0  0  0  0
    0.1532    1.7567   -0.3159 H   0  0  0  0  0  0  0  0  0  0  0  0
   -1.9830    0.8349    1.5648 H   0  0  0  0  0  0  0  0  0  0  0  0
   -2.0084    2.0768    0.2467 H   0  0  0  0  0  0  0  0  0  0  0  0
   -2.2413   -1.7565   -0.9007 H   0  0  0  0  0  0  0  0  0  0  0  0
   -2.4545   -1.3954    0.8246 H   0  0  0  0  0  0  0  0  0  0  0  0
   -0.3237   -2.1285    1.0161 H   0  0  0  0  0  0  0  0  0  0  0  0
   -0.0005   -2.0281   -0.7147 H   0  0  0  0  0  0  0  0  0  0  0  0
  1  2  2  0
  2  3  1  0
  3  4  1  0
  4  5  1  0
  5  6  1  0
  6  7  1  0
  7  8  1  0
  8  9  1  0
  9  4  1  0
  2 10  1  0
  3 11  1  0
  3 12  1  0
  4 13  1  0
  5 14  1  0
  5 15  1  0
  6 16  1  0
  6 17  1  0
  8 18  1  0
  8 19  1  0
  9 20  1  0
  9 21  1  0
M  END
