
     RDKit          3D

 19 19  0  0  0  0  0  0  0  0999 V2000
    3.2993    0.8773   -0.3221 O   0  0  0  0  0  0  0  0  0  0  0  0
    2.6531   -0.1169    0.0705 C   0  0  0  0  0  0  0  0  0  0  0  0
    1.2086   -0.0822    0.0426 C   0  0  0  0  0  0  0  0  0  0  0  0
    0.5994    1.0040   -0.3989 C   0  0  0  0  0  0  0  0  0  0  0  0
   -0.8500    1.1706   -0.4797 C   0  0  0  0  0  0  0  0  0  0  0  0
   -1.2699    2.2990    0.2612 O   0  0  0  0  0  0  0  0  0  0  0  0
   -1.6628    0.0004   -0.0688 C   0  0  0  0  0  0  0  0  0  0  0  0
   -0.9192   -1.3182   -0.1594 C   0  0  0  0  0  0  0  0  0  0  0  0
    0.4249   -1.2585    0.5069 C   0  0  0  0  0  0  0  0  0  0  0  0
    3.1396   -1.0052    0.4315 H   0  0  0  0  0  0  0  0  0  0  0  0
    1.2128    1.8307   -0.7247 H   0  0  0  0  0  0  0  0  0  0  0  0
   -1.0940    1.4348   -1.5454 H   0  0  0  0  0  0  0  0  0  0  0  0
   -1.0978    2.2114    1.2112 H   0  0  0  0  0  0  0  0  0  0  0  0
   -2.5405   -0.0954   -0.7410 H   0  0  0  0  0  0  0  0  0  0  0  0
   -2.1021    0.1227    0.9624 H   0  0  0  0  0  0  0  0  0  0  0  0
   -0.7926   -1.5788   -1.2349 H   0  0  0  0  0  0  0  0  0  0  0  0
   -1.5319   -2.0622    0.3926 H   0  0  0  0  0  0  0  0  0  0  0  0
    0.3287   -1.2713    1.6061 H   0  0  0  0  0  0  0  0  0  0  0  0
    0.9944   -2.1620    0.1901 H   0  0  0  0  0  0  0  0  0  0  0  0
  1  2  2  0
  2  3  1  0
  3  4  2  0
  4  5  1  0
  5  6  1  0
  5  7  1  0
  7  8  1  0
  8  9  1  0
  9  3  1  0
  2 10  1  0
  4 11  1  0
  5 12  1  0
  6 13  1  0
  7 14  1  0
  7 15  1  0
  8 16  1  0
  8 17  1  0
  9 18  1  0
  9 19  1  0
M  END
