
     RDKit          3D

 19 19  0  0  0  0  0  0  0  0999 V2000
   -3.4166    0.4810    0.5421 O   0  0  0  0  0  0  0  0  0  0  0  0
   -2.9064   -0.4701   -0.0209 C   0  0  0  0  0  0  0  0  0  0  0  0
   -1.4287   -0.6751   -0.0831 C   0  0  0  0  0  0  0  0  0  0  0  0
   -0.7431    0.4539    0.6412 C   0  0  0  0  0  0  0  0  0  0  0  0
    0.7453    0.3584    0.6492 C   0  0  0  0  0  0  0  0  0  0  0  0
    1.2011    1.4912    1.3666 O   0  0  0  0  0  0  0  0  0  0  0  0
    1.4032    0.3993   -0.6827 C   0  0  0  0  0  0  0  0  0  0  0  0
    2.3554   -0.7618   -0.9456 C   0  0  0  0  0  0  0  0  0  0  0  0
    1.1972   -0.5518   -1.6504 O   0  0  0  0  0  0  0  0  0  0  0  0
   -3.5631   -1.1820   -0.4872 H   0  0  0  0  0  0  0  0  0  0  0  0
   -1.0677   -0.7064   -1.1314 H   0  0  0  0  0  0  0  0  0  0  0  0
   -1.2227   -1.6230    0.4468 H   0  0  0  0  0  0  0  0  0  0  0  0
   -1.0820    1.4522    0.2710 H   0  0  0  0  0  0  0  0  0  0  0  0
   -1.0628    0.4320    1.7257 H   0  0  0  0  0  0  0  0  0  0  0  0
    1.0359   -0.5262    1.2573 H   0  0  0  0  0  0  0  0  0  0  0  0
    1.0593    2.2584    0.7486 H   0  0  0  0  0  0  0  0  0  0  0  0
    1.8433    1.3813   -1.0275 H   0  0  0  0  0  0  0  0  0  0  0  0
    3.3439   -0.5717   -1.3671 H   0  0  0  0  0  0  0  0  0  0  0  0
    2.3085   -1.6397   -0.2526 H   0  0  0  0  0  0  0  0  0  0  0  0
  1  2  2  0
  2  3  1  0
  3  4  1  0
  4  5  1  0
  5  6  1  0
  5  7  1  0
  7  8  1  0
  8  9  1  0
  9  7  1  0
  2 10  1  0
  3 11  1  0
  3 12  1  0
  4 13  1  0
  4 14  1  0
  5 15  1  0
  6 16  1  0
  7 17  1  0
  8 18  1  0
  8 19  1  0
M  END
