
     RDKit          3D

 19 19  0  0  0  0  0  0  0  0999 V2000
    1.8927   -0.8255   -1.8696 O   0  0  0  0  0  0  0  0  0  0  0  0
    2.3087   -0.9494   -0.6949 C   0  0  0  0  0  0  0  0  0  0  0  0
    1.9687    0.0810    0.2728 C   0  0  0  0  0  0  0  0  0  0  0  0
    2.3718   -0.0537    1.4501 O   0  0  0  0  0  0  0  0  0  0  0  0
    1.1639    1.2747   -0.0848 C   0  0  0  0  0  0  0  0  0  0  0  0
   -0.2525    0.9079   -0.4400 C   0  0  0  0  0  0  0  0  0  0  0  0
   -0.9895    0.1855    0.6648 C   0  0  0  0  0  0  0  0  0  0  0  0
   -2.4506   -0.1890    0.2842 C   0  0  0  0  0  0  0  0  0  0  0  0
   -1.3208   -1.2410    0.4268 C   0  0  0  0  0  0  0  0  0  0  0  0
    2.8979   -1.8103   -0.4500 H   0  0  0  0  0  0  0  0  0  0  0  0
    1.2204    2.0052    0.7294 H   0  0  0  0  0  0  0  0  0  0  0  0
    1.6192    1.7314   -0.9932 H   0  0  0  0  0  0  0  0  0  0  0  0
   -0.2397    0.2762   -1.3540 H   0  0  0  0  0  0  0  0  0  0  0  0
   -0.7959    1.8512   -0.6722 H   0  0  0  0  0  0  0  0  0  0  0  0
   -0.8431    0.5125    1.6996 H   0  0  0  0  0  0  0  0  0  0  0  0
   -2.7828    0.0622   -0.7372 H   0  0  0  0  0  0  0  0  0  0  0  0
   -3.1823   -0.1225    1.1198 H   0  0  0  0  0  0  0  0  0  0  0  0
   -1.0563   -1.7224   -0.5574 H   0  0  0  0  0  0  0  0  0  0  0  0
   -1.5298   -1.9738    1.2058 H   0  0  0  0  0  0  0  0  0  0  0  0
  1  2  2  0
  2  3  1  0
  3  4  2  0
  3  5  1  0
  5  6  1  0
  6  7  1  0
  7  8  1  0
  8  9  1  0
  9  7  1  0
  2 10  1  0
  5 11  1  0
  5 12  1  0
  6 13  1  0
  6 14  1  0
  7 15  1  0
  8 16  1  0
  8 17  1  0
  9 18  1  0
  9 19  1  0
M  END
