
     RDKit          3D

 17 17  0  0  0  0  0  0  0  0999 V2000
    4.4923   -0.5909   -0.7028 O   0  0  0  0  0  0  0  0  0  0  0  0
    3.7814    0.2454   -0.0902 C   0  0  0  0  0  0  0  0  0  0  0  0
    2.3532    0.3300   -0.2096 C   0  0  0  0  0  0  0  0  0  0  0  0
    1.1551    0.4219   -0.3085 C   0  0  0  0  0  0  0  0  0  0  0  0
   -0.2791    0.5186   -0.4221 C   0  0  0  0  0  0  0  0  0  0  0  0
   -0.8659   -0.5805   -1.2661 C   0  0  0  0  0  0  0  0  0  0  0  0
   -2.1910   -0.7928   -0.6419 C   0  0  0  0  0  0  0  0  0  0  0  0
   -2.2524   -0.2492    0.5663 C   0  0  0  0  0  0  0  0  0  0  0  0
   -0.9661    0.4079    0.9215 C   0  0  0  0  0  0  0  0  0  0  0  0
    4.2864    0.9393    0.5642 H   0  0  0  0  0  0  0  0  0  0  0  0
   -0.6179    1.4865   -0.8650 H   0  0  0  0  0  0  0  0  0  0  0  0
   -0.2477   -1.4966   -1.2740 H   0  0  0  0  0  0  0  0  0  0  0  0
   -1.0081   -0.2687   -2.3136 H   0  0  0  0  0  0  0  0  0  0  0  0
   -3.0294   -1.3295   -1.1044 H   0  0  0  0  0  0  0  0  0  0  0  0
   -3.1114   -0.2657    1.2290 H   0  0  0  0  0  0  0  0  0  0  0  0
   -0.3645   -0.1815    1.6382 H   0  0  0  0  0  0  0  0  0  0  0  0
   -1.1349    1.4060    1.3696 H   0  0  0  0  0  0  0  0  0  0  0  0
  1  2  2  0
  2  3  1  0
  3  4  3  0
  4  5  1  0
  5  6  1  0
  6  7  1  0
  7  8  2  0
  8  9  1  0
  9  5  1  0
  2 10  1  0
  5 11  1  0
  6 12  1  0
  6 13  1  0
  7 14  1  0
  8 15  1  0
  9 16  1  0
  9 17  1  0
M  END
