
     RDKit          3D

 15 15  0  0  0  0  0  0  0  0999 V2000
    3.4162   -0.5874    0.2085 O   0  0  0  0  0  0  0  0  0  0  0  0
    2.2822   -0.2015    0.4028 C   0  0  0  0  0  0  0  0  0  0  0  0
    1.2293   -0.2396   -0.6438 C   0  0  0  0  0  0  0  0  0  0  0  0
   -0.0868    0.3004   -0.1332 C   0  0  0  0  0  0  0  0  0  0  0  0
   -1.0717    0.2637   -1.1166 O   0  0  0  0  0  0  0  0  0  0  0  0
   -2.2286    0.4644   -0.3405 C   0  0  0  0  0  0  0  0  0  0  0  0
   -2.0657   -0.3532    0.8060 O   0  0  0  0  0  0  0  0  0  0  0  0
   -0.6779   -0.5756    0.9090 C   0  0  0  0  0  0  0  0  0  0  0  0
   -0.0868   -1.3543    1.7181 O   0  0  0  0  0  0  0  0  0  0  0  0
    2.0246    0.1871    1.3778 H   0  0  0  0  0  0  0  0  0  0  0  0
    1.0768   -1.3005   -0.9593 H   0  0  0  0  0  0  0  0  0  0  0  0
    1.5394    0.2982   -1.5633 H   0  0  0  0  0  0  0  0  0  0  0  0
   -0.0133    1.3387    0.2164 H   0  0  0  0  0  0  0  0  0  0  0  0
   -2.1903    1.5260    0.0176 H   0  0  0  0  0  0  0  0  0  0  0  0
   -3.1474    0.2337   -0.8995 H   0  0  0  0  0  0  0  0  0  0  0  0
  1  2  2  0
  2  3  1  0
  3  4  1  0
  4  5  1  0
  5  6  1  0
  6  7  1  0
  7  8  1  0
  8  9  2  0
  8  4  1  0
  2 10  1  0
  3 11  1  0
  3 12  1  0
  4 13  1  0
  6 14  1  0
  6 15  1  0
M  END
