
     RDKit          3D

 17 18  0  0  0  0  0  0  0  0999 V2000
    2.7841   -0.7221    0.3556 O   0  0  0  0  0  0  0  0  0  0  0  0
    2.4522    0.4252    0.0298 C   0  0  0  0  0  0  0  0  0  0  0  0
    1.1792    0.7234   -0.6663 C   0  0  0  0  0  0  0  0  0  0  0  0
   -0.0159    0.1364    0.0310 C   0  0  0  0  0  0  0  0  0  0  0  0
   -0.0625   -1.3069    0.2369 C   0  0  0  0  0  0  0  0  0  0  0  0
   -1.0007   -0.6780   -0.7425 C   0  0  0  0  0  0  0  0  0  0  0  0
   -2.2606   -0.3995   -0.2445 O   0  0  0  0  0  0  0  0  0  0  0  0
   -2.1107    0.5010    0.7720 C   0  0  0  0  0  0  0  0  0  0  0  0
   -0.8393    1.0281    0.7063 O   0  0  0  0  0  0  0  0  0  0  0  0
    3.1790    1.1978    0.3027 H   0  0  0  0  0  0  0  0  0  0  0  0
    1.2828    0.3606   -1.7045 H   0  0  0  0  0  0  0  0  0  0  0  0
    1.0874    1.8149   -0.7252 H   0  0  0  0  0  0  0  0  0  0  0  0
   -0.4397   -1.6304    1.2379 H   0  0  0  0  0  0  0  0  0  0  0  0
    0.7433   -1.9110   -0.1822 H   0  0  0  0  0  0  0  0  0  0  0  0
   -0.8668   -0.8512   -1.8341 H   0  0  0  0  0  0  0  0  0  0  0  0
   -2.9098    1.2861    0.6449 H   0  0  0  0  0  0  0  0  0  0  0  0
   -2.2019    0.0258    1.7821 H   0  0  0  0  0  0  0  0  0  0  0  0
  1  2  2  0
  2  3  1  0
  3  4  1  0
  4  5  1  0
  5  6  1  0
  6  7  1  0
  7  8  1  0
  8  9  1  0
  6  4  1  0
  9  4  1  0
  2 10  1  0
  3 11  1  0
  3 12  1  0
  5 13  1  0
  5 14  1  0
  6 15  1  0
  8 16  1  0
  8 17  1  0
M  END
