
     RDKit          3D

 16 17  0  0  0  0  0  0  0  0999 V2000
    2.0221   -1.8589    0.5695 O   0  0  0  0  0  0  0  0  0  0  0  0
    1.9099   -0.7516    0.0787 C   0  0  0  0  0  0  0  0  0  0  0  0
    0.5887   -0.1366   -0.0339 C   0  0  0  0  0  0  0  0  0  0  0  0
   -0.5614   -0.8939   -0.6528 C   0  0  0  0  0  0  0  0  0  0  0  0
   -1.7397   -0.0370   -0.2466 C   0  0  0  0  0  0  0  0  0  0  0  0
   -1.4312    0.3314    1.0383 O   0  0  0  0  0  0  0  0  0  0  0  0
   -0.0576    0.5903    1.0882 C   0  0  0  0  0  0  0  0  0  0  0  0
    0.5061    1.3635   -0.0358 C   0  0  0  0  0  0  0  0  0  0  0  0
    2.7963   -0.2341   -0.2700 H   0  0  0  0  0  0  0  0  0  0  0  0
   -0.4721   -1.0505   -1.7245 H   0  0  0  0  0  0  0  0  0  0  0  0
   -0.6658   -1.8503   -0.0664 H   0  0  0  0  0  0  0  0  0  0  0  0
   -1.9193    0.8068   -0.9385 H   0  0  0  0  0  0  0  0  0  0  0  0
   -2.6819   -0.6436   -0.2370 H   0  0  0  0  0  0  0  0  0  0  0  0
    0.4616    0.5433    2.0486 H   0  0  0  0  0  0  0  0  0  0  0  0
    1.4344    1.9440    0.1320 H   0  0  0  0  0  0  0  0  0  0  0  0
   -0.1900    1.8773   -0.7498 H   0  0  0  0  0  0  0  0  0  0  0  0
  1  2  2  0
  2  3  1  0
  3  4  1  0
  4  5  1  0
  5  6  1  0
  6  7  1  0
  7  8  1  0
  7  3  1  0
  8  3  1  0
  2  9  1  0
  4 10  1  0
  4 11  1  0
  5 12  1  0
  5 13  1  0
  7 14  1  0
  8 15  1  0
  8 16  1  0
M  END
