
     RDKit          3D

 15 16  0  0  0  0  0  0  0  0999 V2000
    2.0986    1.9139    1.0120 O   0  0  0  0  0  0  0  0  0  0  0  0
    1.6914    1.0490    0.2537 C   0  0  0  0  0  0  0  0  0  0  0  0
    0.4802    0.2848    0.5745 C   0  0  0  0  0  0  0  0  0  0  0  0
    0.5753   -1.2072    0.3514 C   0  0  0  0  0  0  0  0  0  0  0  0
   -0.2888   -1.1534   -0.8667 C   0  0  0  0  0  0  0  0  0  0  0  0
   -0.1768   -0.1320   -1.7829 O   0  0  0  0  0  0  0  0  0  0  0  0
   -0.5364    0.3145   -0.5432 C   0  0  0  0  0  0  0  0  0  0  0  0
   -1.8764    0.7782   -0.2204 C   0  0  0  0  0  0  0  0  0  0  0  0
   -2.1363    1.1629    0.8973 O   0  0  0  0  0  0  0  0  0  0  0  0
    2.2622    0.8807   -0.6504 H   0  0  0  0  0  0  0  0  0  0  0  0
    0.0535    0.5347    1.5505 H   0  0  0  0  0  0  0  0  0  0  0  0
    0.0538   -1.7810    1.1592 H   0  0  0  0  0  0  0  0  0  0  0  0
    1.5950   -1.6056    0.2304 H   0  0  0  0  0  0  0  0  0  0  0  0
   -1.1417   -1.8271   -1.0025 H   0  0  0  0  0  0  0  0  0  0  0  0
   -2.6535    0.7875   -0.9628 H   0  0  0  0  0  0  0  0  0  0  0  0
  1  2  2  0
  2  3  1  0
  3  4  1  0
  4  5  1  0
  5  6  1  0
  6  7  1  0
  7  8  1  0
  8  9  2  0
  7  3  1  0
  7  5  1  0
  2 10  1  0
  3 11  1  0
  4 12  1  0
  4 13  1  0
  5 14  1  0
  8 15  1  0
M  END
