
     RDKit          3D

 17 17  0  0  0  0  0  0  0  0999 V2000
    1.6469    2.7182    0.3306 O   0  0  0  0  0  0  0  0  0  0  0  0
    1.4378    1.7548   -0.4248 C   0  0  0  0  0  0  0  0  0  0  0  0
    0.5008    0.7233   -0.0524 C   0  0  0  0  0  0  0  0  0  0  0  0
   -0.1370    0.8140    1.1077 C   0  0  0  0  0  0  0  0  0  0  0  0
   -1.0837   -0.3337    1.3633 C   0  0  0  0  0  0  0  0  0  0  0  0
   -1.8915   -0.3672    0.2021 O   0  0  0  0  0  0  0  0  0  0  0  0
   -1.1329   -1.0190   -0.7660 C   0  0  0  0  0  0  0  0  0  0  0  0
    0.2356   -0.4410   -0.9442 C   0  0  0  0  0  0  0  0  0  0  0  0
    1.2445   -1.3978   -0.7814 O   0  0  0  0  0  0  0  0  0  0  0  0
    1.9527    1.6855   -1.3568 H   0  0  0  0  0  0  0  0  0  0  0  0
   -0.0046    1.6112    1.7998 H   0  0  0  0  0  0  0  0  0  0  0  0
   -1.6614   -0.1946    2.2727 H   0  0  0  0  0  0  0  0  0  0  0  0
   -0.4415   -1.2374    1.3601 H   0  0  0  0  0  0  0  0  0  0  0  0
   -1.7101   -0.9735   -1.7290 H   0  0  0  0  0  0  0  0  0  0  0  0
   -1.0799   -2.0952   -0.4287 H   0  0  0  0  0  0  0  0  0  0  0  0
    0.3350   -0.0603   -1.9832 H   0  0  0  0  0  0  0  0  0  0  0  0
    1.7891   -1.1873    0.0300 H   0  0  0  0  0  0  0  0  0  0  0  0
  1  2  2  0
  2  3  1  0
  3  4  2  0
  4  5  1  0
  5  6  1  0
  6  7  1  0
  7  8  1  0
  8  9  1  0
  8  3  1  0
  2 10  1  0
  4 11  1  0
  5 12  1  0
  5 13  1  0
  7 14  1  0
  7 15  1  0
  8 16  1  0
  9 17  1  0
M  END
