
     RDKit          3D

 15 15  0  0  0  0  0  0  0  0999 V2000
   -1.6474   -1.8719   -0.2861 O   0  0  0  0  0  0  0  0  0  0  0  0
   -1.8651   -0.6872   -0.2622 C   0  0  0  0  0  0  0  0  0  0  0  0
   -0.7542    0.2545   -0.4990 C   0  0  0  0  0  0  0  0  0  0  0  0
   -1.1241    1.5786   -0.4470 O   0  0  0  0  0  0  0  0  0  0  0  0
    0.3402   -0.0948    0.4645 C   0  0  0  0  0  0  0  0  0  0  0  0
    1.5885    0.7485    0.3999 C   0  0  0  0  0  0  0  0  0  0  0  0
    2.2571   -0.4720    0.7562 O   0  0  0  0  0  0  0  0  0  0  0  0
    1.3004   -1.1084   -0.0094 C   0  0  0  0  0  0  0  0  0  0  0  0
    1.3124   -2.1023   -0.7529 O   0  0  0  0  0  0  0  0  0  0  0  0
   -2.8521   -0.3232   -0.0716 H   0  0  0  0  0  0  0  0  0  0  0  0
   -0.3315    0.0835   -1.5328 H   0  0  0  0  0  0  0  0  0  0  0  0
   -1.8448    1.7368    0.2142 H   0  0  0  0  0  0  0  0  0  0  0  0
    0.0469   -0.2737    1.5013 H   0  0  0  0  0  0  0  0  0  0  0  0
    1.9417    1.0015   -0.6239 H   0  0  0  0  0  0  0  0  0  0  0  0
    1.6321    1.5300    1.1487 H   0  0  0  0  0  0  0  0  0  0  0  0
  1  2  2  0
  2  3  1  0
  3  4  1  0
  3  5  1  0
  5  6  1  0
  6  7  1  0
  7  8  1  0
  8  9  2  0
  8  5  1  0
  2 10  1  0
  3 11  1  0
  4 12  1  0
  5 13  1  0
  6 14  1  0
  6 15  1  0
M  END
