
     RDKit          3D

 19 20  0  0  0  0  0  0  0  0999 V2000
   -1.1197   -2.2161   -0.6957 O   0  0  0  0  0  0  0  0  0  0  0  0
   -1.4913   -1.4254    0.1551 C   0  0  0  0  0  0  0  0  0  0  0  0
   -0.8020   -0.1002    0.3100 C   0  0  0  0  0  0  0  0  0  0  0  0
    0.4993    0.0835   -0.3979 C   0  0  0  0  0  0  0  0  0  0  0  0
    1.5928   -0.8991   -0.0876 C   0  0  0  0  0  0  0  0  0  0  0  0
    2.3882    0.3428   -0.4172 C   0  0  0  0  0  0  0  0  0  0  0  0
    1.3480    1.0627    0.1777 O   0  0  0  0  0  0  0  0  0  0  0  0
   -1.7473    1.0932    0.0585 C   0  0  0  0  0  0  0  0  0  0  0  0
   -1.2491    0.7647    1.4346 C   0  0  0  0  0  0  0  0  0  0  0  0
   -2.3185   -1.6609    0.8077 H   0  0  0  0  0  0  0  0  0  0  0  0
    0.3845    0.2411   -1.4707 H   0  0  0  0  0  0  0  0  0  0  0  0
    1.7710   -1.6645   -0.8780 H   0  0  0  0  0  0  0  0  0  0  0  0
    1.6891   -1.2491    0.9391 H   0  0  0  0  0  0  0  0  0  0  0  0
    3.3760    0.4105    0.0495 H   0  0  0  0  0  0  0  0  0  0  0  0
    2.3696    0.5080   -1.5346 H   0  0  0  0  0  0  0  0  0  0  0  0
   -2.8052    0.8756   -0.2010 H   0  0  0  0  0  0  0  0  0  0  0  0
   -1.3639    1.9924   -0.4422 H   0  0  0  0  0  0  0  0  0  0  0  0
   -2.0376    0.3866    2.1104 H   0  0  0  0  0  0  0  0  0  0  0  0
   -0.4840    1.4540    1.8733 H   0  0  0  0  0  0  0  0  0  0  0  0
  1  2  2  0
  2  3  1  0
  3  4  1  0
  4  5  1  0
  5  6  1  0
  6  7  1  0
  3  8  1  0
  8  9  1  0
  9  3  1  0
  7  4  1  0
  2 10  1  0
  4 11  1  0
  5 12  1  0
  5 13  1  0
  6 14  1  0
  6 15  1  0
  8 16  1  0
  8 17  1  0
  9 18  1  0
  9 19  1  0
M  END
