
     RDKit          3D

 19 20  0  0  0  0  0  0  0  0999 V2000
    2.6125   -1.6984    1.2210 O   0  0  0  0  0  0  0  0  0  0  0  0
    2.0201   -0.7161    0.8224 C   0  0  0  0  0  0  0  0  0  0  0  0
    1.2002   -0.6958   -0.3859 C   0  0  0  0  0  0  0  0  0  0  0  0
    1.3826    0.5465   -1.2788 C   0  0  0  0  0  0  0  0  0  0  0  0
    0.1107    0.2585   -0.6249 C   0  0  0  0  0  0  0  0  0  0  0  0
   -0.4875    1.1044    0.4496 C   0  0  0  0  0  0  0  0  0  0  0  0
   -1.7708    0.3405    0.7779 C   0  0  0  0  0  0  0  0  0  0  0  0
   -1.7605   -0.7485   -0.2581 C   0  0  0  0  0  0  0  0  0  0  0  0
   -1.0018   -0.2108   -1.3192 O   0  0  0  0  0  0  0  0  0  0  0  0
    2.1145    0.1893    1.4064 H   0  0  0  0  0  0  0  0  0  0  0  0
    1.1473   -1.6669   -0.9410 H   0  0  0  0  0  0  0  0  0  0  0  0
    1.4626    0.3828   -2.3671 H   0  0  0  0  0  0  0  0  0  0  0  0
    2.0128    1.3663   -0.8775 H   0  0  0  0  0  0  0  0  0  0  0  0
    0.1086    1.1826    1.3642 H   0  0  0  0  0  0  0  0  0  0  0  0
   -0.8160    2.0926    0.0467 H   0  0  0  0  0  0  0  0  0  0  0  0
   -1.7113   -0.0780    1.8160 H   0  0  0  0  0  0  0  0  0  0  0  0
   -2.6666    0.9528    0.6562 H   0  0  0  0  0  0  0  0  0  0  0  0
   -1.2144   -1.6141    0.1586 H   0  0  0  0  0  0  0  0  0  0  0  0
   -2.7431   -0.9877   -0.6664 H   0  0  0  0  0  0  0  0  0  0  0  0
  1  2  2  0
  2  3  1  0
  3  4  1  0
  4  5  1  0
  5  6  1  0
  6  7  1  0
  7  8  1  0
  8  9  1  0
  5  3  1  0
  9  5  1  0
  2 10  1  0
  3 11  1  0
  4 12  1  0
  4 13  1  0
  6 14  1  0
  6 15  1  0
  7 16  1  0
  7 17  1  0
  8 18  1  0
  8 19  1  0
M  END
