
     RDKit          3D

 21 22  0  0  0  0  0  0  0  0999 V2000
    0.8575    2.2473    1.2452 O   0  0  0  0  0  0  0  0  0  0  0  0
   -0.0611    1.4743    1.0266 C   0  0  0  0  0  0  0  0  0  0  0  0
   -0.1641    0.9852   -0.3709 C   0  0  0  0  0  0  0  0  0  0  0  0
    1.1333    0.4983   -0.8757 C   0  0  0  0  0  0  0  0  0  0  0  0
    1.3964   -0.8237   -0.2025 C   0  0  0  0  0  0  0  0  0  0  0  0
    0.4681   -1.1957    0.8961 C   0  0  0  0  0  0  0  0  0  0  0  0
   -1.0014   -0.9779    0.6211 C   0  0  0  0  0  0  0  0  0  0  0  0
   -1.0962   -0.2442   -0.6465 C   0  0  0  0  0  0  0  0  0  0  0  0
   -1.4371    1.0882   -0.9855 C   0  0  0  0  0  0  0  0  0  0  0  0
   -0.6769    1.2418    1.8541 H   0  0  0  0  0  0  0  0  0  0  0  0
    1.0741    0.3319   -1.9826 H   0  0  0  0  0  0  0  0  0  0  0  0
    1.9460    1.2356   -0.7325 H   0  0  0  0  0  0  0  0  0  0  0  0
    2.4168   -0.7461    0.2318 H   0  0  0  0  0  0  0  0  0  0  0  0
    1.4628   -1.6390   -0.9604 H   0  0  0  0  0  0  0  0  0  0  0  0
    0.6185   -2.2918    1.0802 H   0  0  0  0  0  0  0  0  0  0  0  0
    0.7205   -0.7068    1.8579 H   0  0  0  0  0  0  0  0  0  0  0  0
   -1.5517   -0.5517    1.4835 H   0  0  0  0  0  0  0  0  0  0  0  0
   -1.5204   -1.9751    0.4671 H   0  0  0  0  0  0  0  0  0  0  0  0
   -0.8050   -0.9102   -1.5154 H   0  0  0  0  0  0  0  0  0  0  0  0
   -2.2711    1.5846   -0.4264 H   0  0  0  0  0  0  0  0  0  0  0  0
   -1.5090    1.3749   -2.0653 H   0  0  0  0  0  0  0  0  0  0  0  0
  1  2  2  0
  2  3  1  0
  3  4  1  0
  4  5  1  0
  5  6  1  0
  6  7  1  0
  7  8  1  0
  8  9  1  0
  8  3  1  0
  9  3  1  0
  2 10  1  0
  4 11  1  0
  4 12  1  0
  5 13  1  0
  5 14  1  0
  6 15  1  0
  6 16  1  0
  7 17  1  0
  7 18  1  0
  8 19  1  0
  9 20  1  0
  9 21  1  0
M  END
