
     RDKit          3D

 15 16  0  0  0  0  0  0  0  0999 V2000
    2.1175   -1.8305   -0.2111 O   0  0  0  0  0  0  0  0  0  0  0  0
    2.0297   -0.6141   -0.1752 C   0  0  0  0  0  0  0  0  0  0  0  0
    0.7304    0.0080   -0.4536 C   0  0  0  0  0  0  0  0  0  0  0  0
    0.6635    1.4313   -0.0669 C   0  0  0  0  0  0  0  0  0  0  0  0
    1.5765    2.2762    0.1177 O   0  0  0  0  0  0  0  0  0  0  0  0
   -0.7046    1.7097    0.0726 O   0  0  0  0  0  0  0  0  0  0  0  0
   -1.3800    0.5910    0.5542 C   0  0  0  0  0  0  0  0  0  0  0  0
   -1.7449   -0.5591   -0.2803 C   0  0  0  0  0  0  0  0  0  0  0  0
   -0.4016   -0.5937    0.3395 C   0  0  0  0  0  0  0  0  0  0  0  0
    2.9421   -0.0786    0.0656 H   0  0  0  0  0  0  0  0  0  0  0  0
    0.4715   -0.1531   -1.5367 H   0  0  0  0  0  0  0  0  0  0  0  0
   -1.8159    0.6935    1.5603 H   0  0  0  0  0  0  0  0  0  0  0  0
   -1.7549   -0.5098   -1.3908 H   0  0  0  0  0  0  0  0  0  0  0  0
   -2.5544   -1.2189    0.1490 H   0  0  0  0  0  0  0  0  0  0  0  0
   -0.1749   -1.1520    1.2556 H   0  0  0  0  0  0  0  0  0  0  0  0
  1  2  2  0
  2  3  1  0
  3  4  1  0
  4  5  2  0
  4  6  1  0
  6  7  1  0
  7  8  1  0
  8  9  1  0
  9  3  1  0
  9  7  1  0
  2 10  1  0
  3 11  1  0
  7 12  1  0
  8 13  1  0
  8 14  1  0
  9 15  1  0
M  END
