
     RDKit          3D

 17 18  0  0  0  0  0  0  0  0999 V2000
   -2.8018    1.4462    0.5764 O   0  0  0  0  0  0  0  0  0  0  0  0
   -2.4680    0.3325    0.2319 C   0  0  0  0  0  0  0  0  0  0  0  0
   -1.1505    0.1436   -0.3779 C   0  0  0  0  0  0  0  0  0  0  0  0
   -0.7274   -1.2859   -0.4094 C   0  0  0  0  0  0  0  0  0  0  0  0
    0.5898   -1.3823   -0.2188 C   0  0  0  0  0  0  0  0  0  0  0  0
    1.1372   -0.0372   -0.0479 C   0  0  0  0  0  0  0  0  0  0  0  0
    2.4275    0.3861   -0.2679 C   0  0  0  0  0  0  0  0  0  0  0  0
    1.5822    0.4836   -1.3699 O   0  0  0  0  0  0  0  0  0  0  0  0
   -0.0232    0.7729    0.4203 C   0  0  0  0  0  0  0  0  0  0  0  0
   -3.1709   -0.4766    0.3949 H   0  0  0  0  0  0  0  0  0  0  0  0
   -1.0697    0.5399   -1.4080 H   0  0  0  0  0  0  0  0  0  0  0  0
   -1.4548   -2.0923   -0.5715 H   0  0  0  0  0  0  0  0  0  0  0  0
    1.1678   -2.3052   -0.1936 H   0  0  0  0  0  0  0  0  0  0  0  0
    2.7881    1.3794    0.0997 H   0  0  0  0  0  0  0  0  0  0  0  0
    3.2665   -0.3202   -0.4172 H   0  0  0  0  0  0  0  0  0  0  0  0
   -0.1547    0.5620    1.5159 H   0  0  0  0  0  0  0  0  0  0  0  0
    0.0619    1.8535    0.2348 H   0  0  0  0  0  0  0  0  0  0  0  0
  1  2  2  0
  2  3  1  0
  3  4  1  0
  4  5  2  0
  5  6  1  0
  6  7  1  0
  7  8  1  0
  6  9  1  0
  9  3  1  0
  8  6  1  0
  2 10  1  0
  3 11  1  0
  4 12  1  0
  5 13  1  0
  7 14  1  0
  7 15  1  0
  9 16  1  0
  9 17  1  0
M  END
