
     RDKit          3D

 19 20  0  0  0  0  0  0  0  0999 V2000
   -1.9740   -1.0120    1.3387 O   0  0  0  0  0  0  0  0  0  0  0  0
   -2.2694   -0.9961    0.1610 C   0  0  0  0  0  0  0  0  0  0  0  0
   -2.0551    0.2123   -0.6534 C   0  0  0  0  0  0  0  0  0  0  0  0
   -0.6634    0.8326   -0.4519 C   0  0  0  0  0  0  0  0  0  0  0  0
    0.4831    0.0998   -0.7578 C   0  0  0  0  0  0  0  0  0  0  0  0
    1.9315    0.2107   -0.4235 C   0  0  0  0  0  0  0  0  0  0  0  0
    1.8818   -0.6372    0.8642 C   0  0  0  0  0  0  0  0  0  0  0  0
    0.5303   -0.7441    1.2019 O   0  0  0  0  0  0  0  0  0  0  0  0
    0.0305    0.4175    0.7183 C   0  0  0  0  0  0  0  0  0  0  0  0
   -2.6873   -1.8856   -0.2730 H   0  0  0  0  0  0  0  0  0  0  0  0
   -2.2208   -0.0039   -1.7362 H   0  0  0  0  0  0  0  0  0  0  0  0
   -2.8432    0.9361   -0.3702 H   0  0  0  0  0  0  0  0  0  0  0  0
   -0.7095    1.9316   -0.6861 H   0  0  0  0  0  0  0  0  0  0  0  0
    0.2750   -0.9564   -1.1126 H   0  0  0  0  0  0  0  0  0  0  0  0
    2.2828    1.2206   -0.2247 H   0  0  0  0  0  0  0  0  0  0  0  0
    2.5701   -0.3487   -1.1518 H   0  0  0  0  0  0  0  0  0  0  0  0
    2.4870   -0.1718    1.6601 H   0  0  0  0  0  0  0  0  0  0  0  0
    2.3502   -1.6343    0.6647 H   0  0  0  0  0  0  0  0  0  0  0  0
    0.6006    1.2605    1.2322 H   0  0  0  0  0  0  0  0  0  0  0  0
  1  2  2  0
  2  3  1  0
  3  4  1  0
  4  5  1  0
  5  6  1  0
  6  7  1  0
  7  8  1  0
  8  9  1  0
  9  4  1  0
  9  5  1  0
  2 10  1  0
  3 11  1  0
  3 12  1  0
  4 13  1  0
  5 14  1  0
  6 15  1  0
  6 16  1  0
  7 17  1  0
  7 18  1  0
  9 19  1  0
M  END
