
     RDKit          3D

 17 17  0  0  0  0  0  0  0  0999 V2000
    0.1767    2.4136    0.6377 O   0  0  0  0  0  0  0  0  0  0  0  0
   -0.7610    1.6821    0.3945 C   0  0  0  0  0  0  0  0  0  0  0  0
   -0.6693    0.6486   -0.6670 C   0  0  0  0  0  0  0  0  0  0  0  0
   -1.8529   -0.0760   -0.7876 O   0  0  0  0  0  0  0  0  0  0  0  0
   -1.6987   -1.1696    0.0845 C   0  0  0  0  0  0  0  0  0  0  0  0
   -0.2514   -1.4084    0.1751 C   0  0  0  0  0  0  0  0  0  0  0  0
    0.3823   -0.3367   -0.2683 C   0  0  0  0  0  0  0  0  0  0  0  0
    1.8533   -0.1361   -0.3626 C   0  0  0  0  0  0  0  0  0  0  0  0
    2.3255    0.9269    0.3749 O   0  0  0  0  0  0  0  0  0  0  0  0
   -1.6704    1.7984    0.9698 H   0  0  0  0  0  0  0  0  0  0  0  0
   -0.4333    1.1057   -1.6371 H   0  0  0  0  0  0  0  0  0  0  0  0
   -2.2699   -2.0462   -0.2908 H   0  0  0  0  0  0  0  0  0  0  0  0
   -2.1669   -0.8679    1.0428 H   0  0  0  0  0  0  0  0  0  0  0  0
    0.2059   -2.3122    0.5439 H   0  0  0  0  0  0  0  0  0  0  0  0
    2.4093   -1.0703   -0.1276 H   0  0  0  0  0  0  0  0  0  0  0  0
    2.0862    0.1072   -1.4413 H   0  0  0  0  0  0  0  0  0  0  0  0
    2.3346    0.7409    1.3590 H   0  0  0  0  0  0  0  0  0  0  0  0
  1  2  2  0
  2  3  1  0
  3  4  1  0
  4  5  1  0
  5  6  1  0
  6  7  2  0
  7  8  1  0
  8  9  1  0
  7  3  1  0
  2 10  1  0
  3 11  1  0
  5 12  1  0
  5 13  1  0
  6 14  1  0
  8 15  1  0
  8 16  1  0
  9 17  1  0
M  END
