
     RDKit          3D

 17 19  0  0  0  0  0  0  0  0999 V2000
   -2.4850    1.1342    1.3881 O   0  0  0  0  0  0  0  0  0  0  0  0
   -1.6602    1.1579    0.5172 C   0  0  0  0  0  0  0  0  0  0  0  0
   -0.7112   -0.0219    0.4561 C   0  0  0  0  0  0  0  0  0  0  0  0
   -1.4154   -1.0613   -0.3181 C   0  0  0  0  0  0  0  0  0  0  0  0
   -0.1942   -0.5510   -0.8968 C   0  0  0  0  0  0  0  0  0  0  0  0
    1.0724   -0.9254   -0.1190 C   0  0  0  0  0  0  0  0  0  0  0  0
    1.9183   -0.0702    0.7142 C   0  0  0  0  0  0  0  0  0  0  0  0
    0.6756    0.4778    0.3915 C   0  0  0  0  0  0  0  0  0  0  0  0
    0.7760    1.4438   -0.6675 O   0  0  0  0  0  0  0  0  0  0  0  0
   -1.6154    1.9717   -0.1635 H   0  0  0  0  0  0  0  0  0  0  0  0
   -1.3633   -2.0855    0.1649 H   0  0  0  0  0  0  0  0  0  0  0  0
   -2.3261   -0.9610   -0.9001 H   0  0  0  0  0  0  0  0  0  0  0  0
   -0.1223    0.1296   -1.7439 H   0  0  0  0  0  0  0  0  0  0  0  0
    0.9258   -1.8572    0.4141 H   0  0  0  0  0  0  0  0  0  0  0  0
    2.8832    0.2192    0.2202 H   0  0  0  0  0  0  0  0  0  0  0  0
    2.1314   -0.2529    1.8109 H   0  0  0  0  0  0  0  0  0  0  0  0
    1.5104    1.2521   -1.2685 H   0  0  0  0  0  0  0  0  0  0  0  0
  1  2  2  0
  2  3  1  0
  3  4  1  0
  4  5  1  0
  5  6  1  0
  6  7  1  0
  7  8  1  0
  8  9  1  0
  5  3  1  0
  8  6  1  0
  8  3  1  0
  2 10  1  0
  4 11  1  0
  4 12  1  0
  5 13  1  0
  6 14  1  0
  7 15  1  0
  7 16  1  0
  9 17  1  0
M  END
