
     RDKit          3D

 19 18  0  0  0  0  0  0  0  0999 V2000
   -1.2140   -1.8760   -1.2431 O   0  0  0  0  0  0  0  0  0  0  0  0
   -0.7534   -1.5628   -0.1593 C   0  0  0  0  0  0  0  0  0  0  0  0
   -0.4620   -0.1198    0.0536 C   0  0  0  0  0  0  0  0  0  0  0  0
    0.0507    0.0180    1.3397 O   0  0  0  0  0  0  0  0  0  0  0  0
   -1.7887    0.6157   -0.1057 C   0  0  0  0  0  0  0  0  0  0  0  0
   -1.5720    1.9723    0.1548 O   0  0  0  0  0  0  0  0  0  0  0  0
    0.5347    0.4068   -0.9495 C   0  0  0  0  0  0  0  0  0  0  0  0
    1.8217   -0.3767   -0.8041 C   0  0  0  0  0  0  0  0  0  0  0  0
    2.7934    0.0529   -1.6995 O   0  0  0  0  0  0  0  0  0  0  0  0
   -0.5901   -2.3377    0.5613 H   0  0  0  0  0  0  0  0  0  0  0  0
   -0.6211    0.1301    2.0291 H   0  0  0  0  0  0  0  0  0  0  0  0
   -2.1008    0.4377   -1.1615 H   0  0  0  0  0  0  0  0  0  0  0  0
   -2.5546    0.1847    0.5420 H   0  0  0  0  0  0  0  0  0  0  0  0
   -1.9317    2.5425   -0.5676 H   0  0  0  0  0  0  0  0  0  0  0  0
    0.1470    0.3926   -1.9655 H   0  0  0  0  0  0  0  0  0  0  0  0
    0.7477    1.4606   -0.6855 H   0  0  0  0  0  0  0  0  0  0  0  0
    2.1728   -0.3462    0.2473 H   0  0  0  0  0  0  0  0  0  0  0  0
    1.6425   -1.4617   -1.0232 H   0  0  0  0  0  0  0  0  0  0  0  0
    3.6777   -0.1332   -1.2596 H   0  0  0  0  0  0  0  0  0  0  0  0
  1  2  2  0
  2  3  1  0
  3  4  1  0
  3  5  1  0
  5  6  1  0
  3  7  1  0
  7  8  1  0
  8  9  1  0
  2 10  1  0
  4 11  1  0
  5 12  1  0
  5 13  1  0
  6 14  1  0
  7 15  1  0
  7 16  1  0
  8 17  1  0
  8 18  1  0
  9 19  1  0
M  END
