
     RDKit          3D

 15 16  0  0  0  0  0  0  0  0999 V2000
   -2.3369   -1.2584    0.4068 O   0  0  0  0  0  0  0  0  0  0  0  0
   -1.3796   -1.0625   -0.4551 C   0  0  0  0  0  0  0  0  0  0  0  0
   -0.6209    0.1086   -0.0377 C   0  0  0  0  0  0  0  0  0  0  0  0
   -1.4504    1.3726   -0.1641 C   0  0  0  0  0  0  0  0  0  0  0  0
   -1.5445    2.0661    0.8130 O   0  0  0  0  0  0  0  0  0  0  0  0
    0.5579    0.1204    0.8187 C   0  0  0  0  0  0  0  0  0  0  0  0
    1.7327   -0.7956    0.5380 C   0  0  0  0  0  0  0  0  0  0  0  0
    1.3799   -0.9591   -0.8203 O   0  0  0  0  0  0  0  0  0  0  0  0
    0.7234    0.2653   -0.7274 C   0  0  0  0  0  0  0  0  0  0  0  0
   -1.4215   -1.7479   -1.2016 H   0  0  0  0  0  0  0  0  0  0  0  0
   -1.9458    1.6383   -1.0890 H   0  0  0  0  0  0  0  0  0  0  0  0
    0.8052    1.0748    1.3786 H   0  0  0  0  0  0  0  0  0  0  0  0
    1.6884   -1.7381    1.0915 H   0  0  0  0  0  0  0  0  0  0  0  0
    2.7003   -0.2675    0.5786 H   0  0  0  0  0  0  0  0  0  0  0  0
    1.1117    1.1827   -1.1300 H   0  0  0  0  0  0  0  0  0  0  0  0
  1  2  2  0
  2  3  1  0
  3  4  1  0
  4  5  2  0
  3  6  1  0
  6  7  1  0
  7  8  1  0
  8  9  1  0
  9  3  1  0
  9  6  1  0
  2 10  1  0
  4 11  1  0
  6 12  1  0
  7 13  1  0
  7 14  1  0
  9 15  1  0
M  END
