
     RDKit          3D

 13 14  0  0  0  0  0  0  0  0999 V2000
   -1.4871    1.7935    0.6331 O   0  0  0  0  0  0  0  0  0  0  0  0
   -0.4329    1.4989    0.0601 C   0  0  0  0  0  0  0  0  0  0  0  0
   -0.3471    0.1391   -0.5481 C   0  0  0  0  0  0  0  0  0  0  0  0
   -1.3034   -0.7885   -0.1006 C   0  0  0  0  0  0  0  0  0  0  0  0
   -0.0452   -1.0566    0.4581 C   0  0  0  0  0  0  0  0  0  0  0  0
    0.9804   -0.3109    1.0420 O   0  0  0  0  0  0  0  0  0  0  0  0
    1.7743    0.0560   -0.0475 C   0  0  0  0  0  0  0  0  0  0  0  0
    3.0119    0.3881   -0.0577 O   0  0  0  0  0  0  0  0  0  0  0  0
    0.9019   -0.0181   -1.1644 O   0  0  0  0  0  0  0  0  0  0  0  0
    0.3852    2.1841   -0.0004 H   0  0  0  0  0  0  0  0  0  0  0  0
   -2.1251   -0.4501    0.5951 H   0  0  0  0  0  0  0  0  0  0  0  0
   -1.7648   -1.4670   -0.8642 H   0  0  0  0  0  0  0  0  0  0  0  0
    0.4518   -1.9687   -0.0056 H   0  0  0  0  0  0  0  0  0  0  0  0
  1  2  2  0
  2  3  1  0
  3  4  1  0
  4  5  1  0
  5  6  1  0
  6  7  1  0
  7  8  2  0
  7  9  1  0
  5  3  1  0
  9  3  1  0
  2 10  1  0
  4 11  1  0
  4 12  1  0
  5 13  1  0
M  END
