
     RDKit          3D

 19 19  0  0  0  0  0  0  0  0999 V2000
    2.7041    0.8050    0.1923 O   0  0  0  0  0  0  0  0  0  0  0  0
    2.4584   -0.3537   -0.0577 C   0  0  0  0  0  0  0  0  0  0  0  0
    1.1422   -1.0121    0.2554 C   0  0  0  0  0  0  0  0  0  0  0  0
    0.0074   -0.2643   -0.3664 C   0  0  0  0  0  0  0  0  0  0  0  0
    0.1227   -0.2254   -1.7365 O   0  0  0  0  0  0  0  0  0  0  0  0
   -0.1063    1.1620    0.1318 C   0  0  0  0  0  0  0  0  0  0  0  0
   -1.5926    1.4045    0.0733 C   0  0  0  0  0  0  0  0  0  0  0  0
   -2.2555    0.2603    0.0664 C   0  0  0  0  0  0  0  0  0  0  0  0
   -1.2905   -0.8418    0.1160 C   0  0  0  0  0  0  0  0  0  0  0  0
    3.2594   -0.9530   -0.5476 H   0  0  0  0  0  0  0  0  0  0  0  0
    1.0123   -1.1194    1.3615 H   0  0  0  0  0  0  0  0  0  0  0  0
    1.1855   -2.0515   -0.1331 H   0  0  0  0  0  0  0  0  0  0  0  0
    0.8733    0.3813   -1.9475 H   0  0  0  0  0  0  0  0  0  0  0  0
    0.2507    1.2821    1.1568 H   0  0  0  0  0  0  0  0  0  0  0  0
    0.3549    1.8820   -0.5708 H   0  0  0  0  0  0  0  0  0  0  0  0
   -2.0654    2.3760    0.0368 H   0  0  0  0  0  0  0  0  0  0  0  0
   -3.3306    0.1335    0.0360 H   0  0  0  0  0  0  0  0  0  0  0  0
   -1.5886   -1.7632   -0.4183 H   0  0  0  0  0  0  0  0  0  0  0  0
   -1.1415   -1.1023    1.2038 H   0  0  0  0  0  0  0  0  0  0  0  0
  1  2  2  0
  2  3  1  0
  3  4  1  0
  4  5  1  0
  4  6  1  0
  6  7  1  0
  7  8  2  0
  8  9  1  0
  9  4  1  0
  2 10  1  0
  3 11  1  0
  3 12  1  0
  5 13  1  0
  6 14  1  0
  6 15  1  0
  7 16  1  0
  8 17  1  0
  9 18  1  0
  9 19  1  0
M  END
