
     RDKit          3D

 17 18  0  0  0  0  0  0  0  0999 V2000
    2.4098   -1.0536   -0.8261 O   0  0  0  0  0  0  0  0  0  0  0  0
    2.4625   -0.0040   -0.1829 C   0  0  0  0  0  0  0  0  0  0  0  0
    1.2866    0.5224    0.5674 C   0  0  0  0  0  0  0  0  0  0  0  0
    0.1535   -0.4211    0.3756 C   0  0  0  0  0  0  0  0  0  0  0  0
   -1.1419   -0.0721    1.0567 C   0  0  0  0  0  0  0  0  0  0  0  0
   -1.7921   -0.8629   -0.0575 C   0  0  0  0  0  0  0  0  0  0  0  0
   -0.7617   -0.0035   -0.7386 C   0  0  0  0  0  0  0  0  0  0  0  0
   -1.2048    1.0606    0.1560 C   0  0  0  0  0  0  0  0  0  0  0  0
   -1.4711    2.2329    0.1361 O   0  0  0  0  0  0  0  0  0  0  0  0
    3.3990    0.5191   -0.1863 H   0  0  0  0  0  0  0  0  0  0  0  0
    1.5365    0.7141    1.6415 H   0  0  0  0  0  0  0  0  0  0  0  0
    0.9857    1.5217    0.1419 H   0  0  0  0  0  0  0  0  0  0  0  0
    0.3535   -1.4891    0.4318 H   0  0  0  0  0  0  0  0  0  0  0  0
   -1.3511   -0.1463    2.0303 H   0  0  0  0  0  0  0  0  0  0  0  0
   -2.8344   -0.6345   -0.2719 H   0  0  0  0  0  0  0  0  0  0  0  0
   -1.4748   -1.9148   -0.0590 H   0  0  0  0  0  0  0  0  0  0  0  0
   -0.5552    0.0313   -1.7159 H   0  0  0  0  0  0  0  0  0  0  0  0
  1  2  2  0
  2  3  1  0
  3  4  1  0
  4  5  1  0
  5  6  1  0
  6  7  1  0
  7  8  1  0
  8  9  2  0
  7  4  1  0
  8  5  1  0
  2 10  1  0
  3 11  1  0
  3 12  1  0
  4 13  1  0
  5 14  1  0
  6 15  1  0
  6 16  1  0
  7 17  1  0
M  END
