
     RDKit          3D

 15 14  0  0  0  0  0  0  0  0999 V2000
    0.1263    0.9385    1.7434 O   0  0  0  0  0  0  0  0  0  0  0  0
    0.0516    1.2345    0.5617 C   0  0  0  0  0  0  0  0  0  0  0  0
    0.0828    0.1625   -0.4651 C   0  0  0  0  0  0  0  0  0  0  0  0
   -1.2455   -0.6053   -0.4642 C   0  0  0  0  0  0  0  0  0  0  0  0
   -2.3165    0.2160   -0.7420 O   0  0  0  0  0  0  0  0  0  0  0  0
    1.1640   -0.8491   -0.2012 C   0  0  0  0  0  0  0  0  0  0  0  0
    2.4309   -0.3005   -0.1855 O   0  0  0  0  0  0  0  0  0  0  0  0
   -0.0352    2.2899    0.3267 H   0  0  0  0  0  0  0  0  0  0  0  0
    0.2046    0.6596   -1.4481 H   0  0  0  0  0  0  0  0  0  0  0  0
   -1.3252   -1.0771    0.5450 H   0  0  0  0  0  0  0  0  0  0  0  0
   -1.1921   -1.3790   -1.2576 H   0  0  0  0  0  0  0  0  0  0  0  0
   -2.3846    0.9886   -0.1277 H   0  0  0  0  0  0  0  0  0  0  0  0
    1.0516   -1.6462   -0.9787 H   0  0  0  0  0  0  0  0  0  0  0  0
    0.9492   -1.3147    0.7859 H   0  0  0  0  0  0  0  0  0  0  0  0
    2.4380    0.6823   -0.2927 H   0  0  0  0  0  0  0  0  0  0  0  0
  1  2  2  0
  2  3  1  0
  3  4  1  0
  4  5  1  0
  3  6  1  0
  6  7  1  0
  2  8  1  0
  3  9  1  0
  4 10  1  0
  4 11  1  0
  5 12  1  0
  6 13  1  0
  6 14  1  0
  7 15  1  0
M  END
