
     RDKit          3D

 13 12  0  0  0  0  0  0  0  0999 V2000
   -0.9582   -1.6968    1.3313 O   0  0  0  0  0  0  0  0  0  0  0  0
   -0.9482   -1.1511    0.2646 C   0  0  0  0  0  0  0  0  0  0  0  0
    0.0056   -0.0294    0.0036 C   0  0  0  0  0  0  0  0  0  0  0  0
    0.5275    0.5571    1.2665 C   0  0  0  0  0  0  0  0  0  0  0  0
    1.0897    1.6368    1.1974 O   0  0  0  0  0  0  0  0  0  0  0  0
   -0.7553    1.0083   -0.7657 C   0  0  0  0  0  0  0  0  0  0  0  0
   -1.6955    1.5368   -0.1952 O   0  0  0  0  0  0  0  0  0  0  0  0
    1.1590   -0.5044   -0.7829 C   0  0  0  0  0  0  0  0  0  0  0  0
    1.8871    0.3015   -1.3032 O   0  0  0  0  0  0  0  0  0  0  0  0
   -1.6044   -1.4262   -0.5454 H   0  0  0  0  0  0  0  0  0  0  0  0
    0.4167    0.0558    2.1999 H   0  0  0  0  0  0  0  0  0  0  0  0
   -0.4661    1.2634   -1.7840 H   0  0  0  0  0  0  0  0  0  0  0  0
    1.3422   -1.5518   -0.8868 H   0  0  0  0  0  0  0  0  0  0  0  0
  1  2  2  0
  2  3  1  0
  3  4  1  0
  4  5  2  0
  3  6  1  0
  6  7  2  0
  3  8  1  0
  8  9  2  0
  2 10  1  0
  4 11  1  0
  6 12  1  0
  8 13  1  0
M  END
