
     RDKit          3D

 16 17  0  0  0  0  0  0  0  0999 V2000
    3.0852   -0.9446    0.2242 O   0  0  0  0  0  0  0  0  0  0  0  0
    2.4922    0.1588    0.2153 C   0  0  0  0  0  0  0  0  0  0  0  0
    1.0699    0.1794   -0.0551 C   0  0  0  0  0  0  0  0  0  0  0  0
    0.2242    1.1991   -0.1207 C   0  0  0  0  0  0  0  0  0  0  0  0
   -1.0681    0.6719   -0.4239 C   0  0  0  0  0  0  0  0  0  0  0  0
   -2.1464    0.0658    0.2254 C   0  0  0  0  0  0  0  0  0  0  0  0
   -0.9356   -0.5724    0.5180 C   0  0  0  0  0  0  0  0  0  0  0  0
    0.2325   -1.0762   -0.2768 C   0  0  0  0  0  0  0  0  0  0  0  0
    3.0586    1.0498    0.4082 H   0  0  0  0  0  0  0  0  0  0  0  0
    0.5397    2.2207    0.0403 H   0  0  0  0  0  0  0  0  0  0  0  0
   -1.0678    0.4498   -1.5468 H   0  0  0  0  0  0  0  0  0  0  0  0
   -2.9157   -0.5387   -0.3397 H   0  0  0  0  0  0  0  0  0  0  0  0
   -2.6913    0.6527    1.0018 H   0  0  0  0  0  0  0  0  0  0  0  0
   -0.5496   -0.3637    1.5675 H   0  0  0  0  0  0  0  0  0  0  0  0
    0.0002   -1.2066   -1.3469 H   0  0  0  0  0  0  0  0  0  0  0  0
    0.6721   -1.9458    0.1956 H   0  0  0  0  0  0  0  0  0  0  0  0
  1  2  2  0
  2  3  1  0
  3  4  2  0
  4  5  1  0
  5  6  1  0
  6  7  1  0
  7  8  1  0
  8  3  1  0
  7  5  1  0
  2  9  1  0
  4 10  1  0
  5 11  1  0
  6 12  1  0
  6 13  1  0
  7 14  1  0
  8 15  1  0
  8 16  1  0
M  END
