
     RDKit          3D

 17 18  0  0  0  0  0  0  0  0999 V2000
   -2.6420    1.3365    1.0929 O   0  0  0  0  0  0  0  0  0  0  0  0
   -2.7339    0.3791    0.3527 C   0  0  0  0  0  0  0  0  0  0  0  0
   -1.5811   -0.5463    0.2452 C   0  0  0  0  0  0  0  0  0  0  0  0
   -0.7691   -0.2756   -1.0007 C   0  0  0  0  0  0  0  0  0  0  0  0
    0.3607   -0.4786    0.0170 C   0  0  0  0  0  0  0  0  0  0  0  0
    1.4349    0.5284   -0.2396 C   0  0  0  0  0  0  0  0  0  0  0  0
    2.8410    0.2892   -0.1268 C   0  0  0  0  0  0  0  0  0  0  0  0
    2.2657    0.0548   -1.3787 O   0  0  0  0  0  0  0  0  0  0  0  0
   -0.4914   -0.1808    1.0443 O   0  0  0  0  0  0  0  0  0  0  0  0
   -3.6160    0.1833   -0.2215 H   0  0  0  0  0  0  0  0  0  0  0  0
   -1.8596   -1.6146    0.3227 H   0  0  0  0  0  0  0  0  0  0  0  0
   -0.8734    0.7623   -1.3307 H   0  0  0  0  0  0  0  0  0  0  0  0
   -0.8257   -1.0393   -1.7795 H   0  0  0  0  0  0  0  0  0  0  0  0
    0.7093   -1.5281    0.0604 H   0  0  0  0  0  0  0  0  0  0  0  0
    1.0486    1.5629   -0.4150 H   0  0  0  0  0  0  0  0  0  0  0  0
    3.2153   -0.6018    0.4461 H   0  0  0  0  0  0  0  0  0  0  0  0
    3.5168    1.1685   -0.1193 H   0  0  0  0  0  0  0  0  0  0  0  0
  1  2  2  0
  2  3  1  0
  3  4  1  0
  4  5  1  0
  5  6  1  0
  6  7  1  0
  7  8  1  0
  5  9  1  0
  9  3  1  0
  8  6  1  0
  2 10  1  0
  3 11  1  0
  4 12  1  0
  4 13  1  0
  5 14  1  0
  6 15  1  0
  7 16  1  0
  7 17  1  0
M  END
