
     RDKit          3D

 15 15  0  0  0  0  0  0  0  0999 V2000
    3.3764    0.8362   -1.3024 O   0  0  0  0  0  0  0  0  0  0  0  0
    3.0847    0.1984   -0.2415 C   0  0  0  0  0  0  0  0  0  0  0  0
    1.7490   -0.3095   -0.0443 C   0  0  0  0  0  0  0  0  0  0  0  0
    1.4846   -0.9301    0.9993 O   0  0  0  0  0  0  0  0  0  0  0  0
    0.7797   -0.1129   -0.9930 O   0  0  0  0  0  0  0  0  0  0  0  0
   -0.5263   -0.5785   -0.8601 C   0  0  0  0  0  0  0  0  0  0  0  0
   -1.1998    0.0199    0.3791 C   0  0  0  0  0  0  0  0  0  0  0  0
   -2.3778    0.8493    0.1596 C   0  0  0  0  0  0  0  0  0  0  0  0
   -2.5764   -0.5382    0.4249 O   0  0  0  0  0  0  0  0  0  0  0  0
    3.8890    0.0656    0.4867 H   0  0  0  0  0  0  0  0  0  0  0  0
   -1.1306   -0.3434   -1.7412 H   0  0  0  0  0  0  0  0  0  0  0  0
   -0.4897   -1.6819   -0.6662 H   0  0  0  0  0  0  0  0  0  0  0  0
   -0.7007   -0.1335    1.3332 H   0  0  0  0  0  0  0  0  0  0  0  0
   -2.5614    1.1788   -0.8976 H   0  0  0  0  0  0  0  0  0  0  0  0
   -2.8006    1.4799    0.9436 H   0  0  0  0  0  0  0  0  0  0  0  0
  1  2  2  0
  2  3  1  0
  3  4  2  0
  3  5  1  0
  5  6  1  0
  6  7  1  0
  7  8  1  0
  8  9  1  0
  9  7  1  0
  2 10  1  0
  6 11  1  0
  6 12  1  0
  7 13  1  0
  8 14  1  0
  8 15  1  0
M  END
