
     RDKit          3D

 17 19  0  0  0  0  0  0  0  0999 V2000
    3.3189    0.1274   -1.2396 O   0  0  0  0  0  0  0  0  0  0  0  0
    2.5280   -0.2492   -0.4064 C   0  0  0  0  0  0  0  0  0  0  0  0
    1.0811    0.0604   -0.5338 C   0  0  0  0  0  0  0  0  0  0  0  0
    0.4290    0.4977    0.7091 C   0  0  0  0  0  0  0  0  0  0  0  0
   -1.0315    0.9154    0.7480 C   0  0  0  0  0  0  0  0  0  0  0  0
   -1.6657    0.5199   -0.5206 C   0  0  0  0  0  0  0  0  0  0  0  0
   -1.3171   -0.8349    0.0413 C   0  0  0  0  0  0  0  0  0  0  0  0
   -1.5982   -0.2604    1.3051 O   0  0  0  0  0  0  0  0  0  0  0  0
    0.1645   -0.9136    0.0662 C   0  0  0  0  0  0  0  0  0  0  0  0
    2.8523   -0.8212    0.4535 H   0  0  0  0  0  0  0  0  0  0  0  0
    0.8378    0.6482   -1.4372 H   0  0  0  0  0  0  0  0  0  0  0  0
    0.9203    0.4520    1.6833 H   0  0  0  0  0  0  0  0  0  0  0  0
   -1.2739    1.8367    1.2351 H   0  0  0  0  0  0  0  0  0  0  0  0
   -2.7317    0.7767   -0.5317 H   0  0  0  0  0  0  0  0  0  0  0  0
   -1.1902    0.6963   -1.4723 H   0  0  0  0  0  0  0  0  0  0  0  0
   -1.9078   -1.6802   -0.2446 H   0  0  0  0  0  0  0  0  0  0  0  0
    0.5841   -1.7712    0.6229 H   0  0  0  0  0  0  0  0  0  0  0  0
  1  2  2  0
  2  3  1  0
  3  4  1  0
  4  5  1  0
  5  6  1  0
  6  7  1  0
  7  8  1  0
  7  9  1  0
  9  3  1  0
  9  4  1  0
  8  5  1  0
  2 10  1  0
  3 11  1  0
  4 12  1  0
  5 13  1  0
  6 14  1  0
  6 15  1  0
  7 16  1  0
  9 17  1  0
M  END
