
     RDKit          3D

 19 20  0  0  0  0  0  0  0  0999 V2000
    2.9409    0.6399    1.1364 O   0  0  0  0  0  0  0  0  0  0  0  0
    2.5197    1.0791    0.0856 C   0  0  0  0  0  0  0  0  0  0  0  0
    1.2292    0.5527   -0.4116 C   0  0  0  0  0  0  0  0  0  0  0  0
    1.2605   -0.9106   -0.6428 C   0  0  0  0  0  0  0  0  0  0  0  0
    0.0986   -1.4624   -0.3525 C   0  0  0  0  0  0  0  0  0  0  0  0
   -0.8081   -0.3878    0.1031 C   0  0  0  0  0  0  0  0  0  0  0  0
   -2.1645   -0.5733    0.5540 C   0  0  0  0  0  0  0  0  0  0  0  0
   -1.9213    0.1031   -0.7787 C   0  0  0  0  0  0  0  0  0  0  0  0
    0.1136    0.7105    0.5938 C   0  0  0  0  0  0  0  0  0  0  0  0
    3.0215    1.8279   -0.5124 H   0  0  0  0  0  0  0  0  0  0  0  0
    0.9227    1.0178   -1.3734 H   0  0  0  0  0  0  0  0  0  0  0  0
    2.1490   -1.4699   -1.0130 H   0  0  0  0  0  0  0  0  0  0  0  0
   -0.1647   -2.4968   -0.4251 H   0  0  0  0  0  0  0  0  0  0  0  0
   -2.5936   -1.5945    0.4699 H   0  0  0  0  0  0  0  0  0  0  0  0
   -2.5815    0.0214    1.3886 H   0  0  0  0  0  0  0  0  0  0  0  0
   -2.0917    1.2024   -0.8662 H   0  0  0  0  0  0  0  0  0  0  0  0
   -2.0845   -0.4555   -1.7130 H   0  0  0  0  0  0  0  0  0  0  0  0
   -0.3606    1.6939    0.5616 H   0  0  0  0  0  0  0  0  0  0  0  0
    0.5148    0.5021    1.6016 H   0  0  0  0  0  0  0  0  0  0  0  0
  1  2  2  0
  2  3  1  0
  3  4  1  0
  4  5  2  0
  5  6  1  0
  6  7  1  0
  7  8  1  0
  6  9  1  0
  9  3  1  0
  8  6  1  0
  2 10  1  0
  3 11  1  0
  4 12  1  0
  5 13  1  0
  7 14  1  0
  7 15  1  0
  8 16  1  0
  8 17  1  0
  9 18  1  0
  9 19  1  0
M  END
