
     RDKit          3D

 19 21  0  0  0  0  0  0  0  0999 V2000
    3.1722   -0.3827    0.5007 O   0  0  0  0  0  0  0  0  0  0  0  0
    2.1283   -0.5427   -0.0904 C   0  0  0  0  0  0  0  0  0  0  0  0
    1.0635    0.4398    0.0139 C   0  0  0  0  0  0  0  0  0  0  0  0
    0.0040    0.3426   -1.0495 C   0  0  0  0  0  0  0  0  0  0  0  0
   -1.0774    1.2259   -0.4107 C   0  0  0  0  0  0  0  0  0  0  0  0
   -1.1745    0.5041    0.9433 C   0  0  0  0  0  0  0  0  0  0  0  0
   -0.8074   -0.8987    0.7159 C   0  0  0  0  0  0  0  0  0  0  0  0
   -0.5786   -1.0140   -0.7976 C   0  0  0  0  0  0  0  0  0  0  0  0
    0.1942    0.0848    1.2288 C   0  0  0  0  0  0  0  0  0  0  0  0
    2.0148   -1.4264   -0.6894 H   0  0  0  0  0  0  0  0  0  0  0  0
    1.4007    1.4986    0.0729 H   0  0  0  0  0  0  0  0  0  0  0  0
    0.2713    0.5998   -2.0384 H   0  0  0  0  0  0  0  0  0  0  0  0
   -2.0171    1.1812   -0.9570 H   0  0  0  0  0  0  0  0  0  0  0  0
   -0.6728    2.2323   -0.2482 H   0  0  0  0  0  0  0  0  0  0  0  0
   -1.8934    0.8537    1.6749 H   0  0  0  0  0  0  0  0  0  0  0  0
   -1.1570   -1.7456    1.2781 H   0  0  0  0  0  0  0  0  0  0  0  0
    0.0563   -1.8533   -1.0630 H   0  0  0  0  0  0  0  0  0  0  0  0
   -1.5735   -1.0727   -1.2842 H   0  0  0  0  0  0  0  0  0  0  0  0
    0.6463   -0.0267    2.2000 H   0  0  0  0  0  0  0  0  0  0  0  0
  1  2  2  0
  2  3  1  0
  3  4  1  0
  4  5  1  0
  5  6  1  0
  6  7  1  0
  7  8  1  0
  7  9  1  0
  9  3  1  0
  8  4  1  0
  9  6  1  0
  2 10  1  0
  3 11  1  0
  4 12  1  0
  5 13  1  0
  5 14  1  0
  6 15  1  0
  7 16  1  0
  8 17  1  0
  8 18  1  0
  9 19  1  0
M  END
