
     RDKit          3D

 15 14  0  0  0  0  0  0  0  0999 V2000
    3.9632    0.3566   -0.3385 O   0  0  0  0  0  0  0  0  0  0  0  0
    3.0560    1.1307   -0.0096 C   0  0  0  0  0  0  0  0  0  0  0  0
    1.7646    0.8052    0.4122 C   0  0  0  0  0  0  0  0  0  0  0  0
    0.5731    0.5255    0.7889 C   0  0  0  0  0  0  0  0  0  0  0  0
   -0.7590    0.2193    1.1843 C   0  0  0  0  0  0  0  0  0  0  0  0
   -0.8001   -0.9107    2.0257 O   0  0  0  0  0  0  0  0  0  0  0  0
   -1.6361   -0.0375   -0.0378 C   0  0  0  0  0  0  0  0  0  0  0  0
   -1.0780   -1.1710   -0.8485 C   0  0  0  0  0  0  0  0  0  0  0  0
   -0.0000   -1.5874   -0.4823 O   0  0  0  0  0  0  0  0  0  0  0  0
    3.3045    2.2146   -0.0566 H   0  0  0  0  0  0  0  0  0  0  0  0
   -1.2580    1.0672    1.7419 H   0  0  0  0  0  0  0  0  0  0  0  0
   -1.2457   -1.6744    1.5284 H   0  0  0  0  0  0  0  0  0  0  0  0
   -1.6036    0.8731   -0.6710 H   0  0  0  0  0  0  0  0  0  0  0  0
   -2.6793   -0.2478    0.2251 H   0  0  0  0  0  0  0  0  0  0  0  0
   -1.6016   -1.5635   -1.6686 H   0  0  0  0  0  0  0  0  0  0  0  0
  1  2  2  0
  2  3  1  0
  3  4  3  0
  4  5  1  0
  5  6  1  0
  5  7  1  0
  7  8  1  0
  8  9  2  0
  2 10  1  0
  5 11  1  0
  6 12  1  0
  7 13  1  0
  7 14  1  0
  8 15  1  0
M  END
