
     RDKit          3D

 15 15  0  0  0  0  0  0  0  0999 V2000
   -2.2794   -1.2052   -1.3336 O   0  0  0  0  0  0  0  0  0  0  0  0
   -1.9701   -0.9294   -0.1961 C   0  0  0  0  0  0  0  0  0  0  0  0
   -0.6153   -0.4316    0.0848 C   0  0  0  0  0  0  0  0  0  0  0  0
   -0.6444    0.9830    0.6380 C   0  0  0  0  0  0  0  0  0  0  0  0
    0.6890    1.3749    0.9068 O   0  0  0  0  0  0  0  0  0  0  0  0
    1.6988    0.5926    0.3845 C   0  0  0  0  0  0  0  0  0  0  0  0
    2.8265    0.5116    0.9286 O   0  0  0  0  0  0  0  0  0  0  0  0
    1.4588   -0.1815   -0.8570 C   0  0  0  0  0  0  0  0  0  0  0  0
    0.0971   -0.3724   -1.1087 O   0  0  0  0  0  0  0  0  0  0  0  0
   -2.6811   -1.0496    0.5903 H   0  0  0  0  0  0  0  0  0  0  0  0
   -0.0633   -1.0642    0.8179 H   0  0  0  0  0  0  0  0  0  0  0  0
   -1.1559    0.9503    1.6382 H   0  0  0  0  0  0  0  0  0  0  0  0
   -1.1634    1.6803   -0.0215 H   0  0  0  0  0  0  0  0  0  0  0  0
    1.9334   -1.1790   -0.7128 H   0  0  0  0  0  0  0  0  0  0  0  0
    1.8692    0.3202   -1.7594 H   0  0  0  0  0  0  0  0  0  0  0  0
  1  2  2  0
  2  3  1  0
  3  4  1  0
  4  5  1  0
  5  6  1  0
  6  7  2  0
  6  8  1  0
  8  9  1  0
  9  3  1  0
  2 10  1  0
  3 11  1  0
  4 12  1  0
  4 13  1  0
  8 14  1  0
  8 15  1  0
M  END
