
     RDKit          3D

 19 19  0  0  0  0  0  0  0  0999 V2000
    2.8566    1.0001    0.3642 O   0  0  0  0  0  0  0  0  0  0  0  0
    2.5164   -0.1168    0.0620 C   0  0  0  0  0  0  0  0  0  0  0  0
    1.0903   -0.5003    0.0869 C   0  0  0  0  0  0  0  0  0  0  0  0
    0.1978    0.6427    0.5181 C   0  0  0  0  0  0  0  0  0  0  0  0
    0.3224    1.8075   -0.4069 C   0  0  0  0  0  0  0  0  0  0  0  0
    0.7608    2.8976   -0.0339 O   0  0  0  0  0  0  0  0  0  0  0  0
   -1.2300    0.1008    0.4944 C   0  0  0  0  0  0  0  0  0  0  0  0
   -1.7199   -0.3905   -0.8075 C   0  0  0  0  0  0  0  0  0  0  0  0
   -1.4914   -1.3378    0.3670 C   0  0  0  0  0  0  0  0  0  0  0  0
    3.2504   -0.8412   -0.2277 H   0  0  0  0  0  0  0  0  0  0  0  0
    0.9907   -1.2796    0.8981 H   0  0  0  0  0  0  0  0  0  0  0  0
    0.8012   -0.9091   -0.8980 H   0  0  0  0  0  0  0  0  0  0  0  0
    0.5061    0.9765    1.5121 H   0  0  0  0  0  0  0  0  0  0  0  0
    0.0310    1.7405   -1.4477 H   0  0  0  0  0  0  0  0  0  0  0  0
   -1.9325    0.6749    1.1666 H   0  0  0  0  0  0  0  0  0  0  0  0
   -1.0250   -0.4074   -1.6564 H   0  0  0  0  0  0  0  0  0  0  0  0
   -2.8018   -0.1986   -1.0199 H   0  0  0  0  0  0  0  0  0  0  0  0
   -0.7279   -2.0930    0.1595 H   0  0  0  0  0  0  0  0  0  0  0  0
   -2.3953   -1.7663    0.8691 H   0  0  0  0  0  0  0  0  0  0  0  0
  1  2  2  0
  2  3  1  0
  3  4  1  0
  4  5  1  0
  5  6  2  0
  4  7  1  0
  7  8  1  0
  8  9  1  0
  9  7  1  0
  2 10  1  0
  3 11  1  0
  3 12  1  0
  4 13  1  0
  5 14  1  0
  7 15  1  0
  8 16  1  0
  8 17  1  0
  9 18  1  0
  9 19  1  0
M  END
