
     RDKit          3D

 19 20  0  0  0  0  0  0  0  0999 V2000
    2.2247   -1.4980    0.0830 O   0  0  0  0  0  0  0  0  0  0  0  0
    2.4430   -0.4295    0.6041 C   0  0  0  0  0  0  0  0  0  0  0  0
    1.5374    0.7042    0.3601 C   0  0  0  0  0  0  0  0  0  0  0  0
    0.4217    0.2587   -0.5600 C   0  0  0  0  0  0  0  0  0  0  0  0
   -0.5291    1.3159   -0.8657 C   0  0  0  0  0  0  0  0  0  0  0  0
   -1.7622    0.8662   -0.7662 C   0  0  0  0  0  0  0  0  0  0  0  0
   -1.7999   -0.5621   -0.3771 C   0  0  0  0  0  0  0  0  0  0  0  0
   -1.3552   -0.8304    1.0108 C   0  0  0  0  0  0  0  0  0  0  0  0
   -0.3311   -0.9024   -0.0570 C   0  0  0  0  0  0  0  0  0  0  0  0
    3.3064   -0.3261    1.2448 H   0  0  0  0  0  0  0  0  0  0  0  0
    1.1075    1.1409    1.2867 H   0  0  0  0  0  0  0  0  0  0  0  0
    2.1143    1.4900   -0.1716 H   0  0  0  0  0  0  0  0  0  0  0  0
    0.9147   -0.0521   -1.5284 H   0  0  0  0  0  0  0  0  0  0  0  0
   -0.2362    2.3603   -1.1446 H   0  0  0  0  0  0  0  0  0  0  0  0
   -2.6543    1.4559   -0.9437 H   0  0  0  0  0  0  0  0  0  0  0  0
   -2.3767   -1.2846   -0.9632 H   0  0  0  0  0  0  0  0  0  0  0  0
   -1.3784    0.0026    1.7332 H   0  0  0  0  0  0  0  0  0  0  0  0
   -1.6408   -1.8038    1.4577 H   0  0  0  0  0  0  0  0  0  0  0  0
   -0.0059   -1.9055   -0.4029 H   0  0  0  0  0  0  0  0  0  0  0  0
  1  2  2  0
  2  3  1  0
  3  4  1  0
  4  5  1  0
  5  6  2  0
  6  7  1  0
  7  8  1  0
  8  9  1  0
  9  4  1  0
  9  7  1  0
  2 10  1  0
  3 11  1  0
  3 12  1  0
  4 13  1  0
  5 14  1  0
  6 15  1  0
  7 16  1  0
  8 17  1  0
  8 18  1  0
  9 19  1  0
M  END
