
     RDKit          3D

 19 19  0  0  0  0  0  0  0  0999 V2000
   -3.4477    0.7854   -0.6203 O   0  0  0  0  0  0  0  0  0  0  0  0
   -2.6985   -0.0791   -0.0728 C   0  0  0  0  0  0  0  0  0  0  0  0
   -1.2640    0.0816    0.0203 C   0  0  0  0  0  0  0  0  0  0  0  0
   -0.7678    1.1836   -0.4979 C   0  0  0  0  0  0  0  0  0  0  0  0
    0.6025    1.6972   -0.5983 C   0  0  0  0  0  0  0  0  0  0  0  0
    1.6872    1.0331   -0.2591 C   0  0  0  0  0  0  0  0  0  0  0  0
    1.8736   -0.3000    0.2760 C   0  0  0  0  0  0  0  0  0  0  0  0
    0.8029   -1.2908    0.0479 C   0  0  0  0  0  0  0  0  0  0  0  0
   -0.5194   -0.9977    0.6798 C   0  0  0  0  0  0  0  0  0  0  0  0
   -3.1388   -0.9847    0.3491 H   0  0  0  0  0  0  0  0  0  0  0  0
   -1.5151    1.8722   -0.9527 H   0  0  0  0  0  0  0  0  0  0  0  0
    0.7173    2.7138   -0.9874 H   0  0  0  0  0  0  0  0  0  0  0  0
    2.5905    1.6257   -0.4253 H   0  0  0  0  0  0  0  0  0  0  0  0
    2.0558   -0.1994    1.3870 H   0  0  0  0  0  0  0  0  0  0  0  0
    2.8229   -0.7159   -0.1227 H   0  0  0  0  0  0  0  0  0  0  0  0
    0.6317   -1.4491   -1.0384 H   0  0  0  0  0  0  0  0  0  0  0  0
    1.1407   -2.2711    0.4457 H   0  0  0  0  0  0  0  0  0  0  0  0
   -0.4441   -0.7651    1.7578 H   0  0  0  0  0  0  0  0  0  0  0  0
   -1.1297   -1.9395    0.6110 H   0  0  0  0  0  0  0  0  0  0  0  0
  1  2  2  0
  2  3  1  0
  3  4  2  0
  4  5  1  0
  5  6  2  0
  6  7  1  0
  7  8  1  0
  8  9  1  0
  9  3  1  0
  2 10  1  0
  4 11  1  0
  5 12  1  0
  6 13  1  0
  7 14  1  0
  7 15  1  0
  8 16  1  0
  8 17  1  0
  9 18  1  0
  9 19  1  0
M  END
