
     RDKit          3D

 19 20  0  0  0  0  0  0  0  0999 V2000
    2.0335    2.4653    1.1594 O   0  0  0  0  0  0  0  0  0  0  0  0
    1.6000    1.3647    0.8782 C   0  0  0  0  0  0  0  0  0  0  0  0
    0.4231    1.1321    0.0407 C   0  0  0  0  0  0  0  0  0  0  0  0
    0.5709   -0.0159   -0.9383 C   0  0  0  0  0  0  0  0  0  0  0  0
    1.2309   -1.2716   -0.4382 C   0  0  0  0  0  0  0  0  0  0  0  0
    0.1418   -1.3902    0.5968 C   0  0  0  0  0  0  0  0  0  0  0  0
   -0.4142   -0.0792    0.1528 C   0  0  0  0  0  0  0  0  0  0  0  0
   -1.8653    0.0085   -0.2670 C   0  0  0  0  0  0  0  0  0  0  0  0
   -2.5716    0.9432    0.4654 O   0  0  0  0  0  0  0  0  0  0  0  0
    2.1323    0.5144    1.2827 H   0  0  0  0  0  0  0  0  0  0  0  0
   -0.0861    2.0322   -0.3486 H   0  0  0  0  0  0  0  0  0  0  0  0
    0.3115    0.1089   -1.9859 H   0  0  0  0  0  0  0  0  0  0  0  0
    1.1573   -2.0793   -1.1843 H   0  0  0  0  0  0  0  0  0  0  0  0
    2.2047   -1.1465    0.0391 H   0  0  0  0  0  0  0  0  0  0  0  0
    0.4705   -1.4069    1.6418 H   0  0  0  0  0  0  0  0  0  0  0  0
   -0.5834   -2.2133    0.4253 H   0  0  0  0  0  0  0  0  0  0  0  0
   -1.9488    0.2420   -1.3615 H   0  0  0  0  0  0  0  0  0  0  0  0
   -2.3008   -1.0163   -0.1564 H   0  0  0  0  0  0  0  0  0  0  0  0
   -2.5065    1.8079   -0.0020 H   0  0  0  0  0  0  0  0  0  0  0  0
  1  2  2  0
  2  3  1  0
  3  4  1  0
  4  5  1  0
  5  6  1  0
  6  7  1  0
  7  8  1  0
  8  9  1  0
  7  3  1  0
  7  4  1  0
  2 10  1  0
  3 11  1  0
  4 12  1  0
  5 13  1  0
  5 14  1  0
  6 15  1  0
  6 16  1  0
  8 17  1  0
  8 18  1  0
  9 19  1  0
M  END
