
     RDKit          3D

 19 20  0  0  0  0  0  0  0  0999 V2000
    2.8558   -1.1673   -0.3573 O   0  0  0  0  0  0  0  0  0  0  0  0
    1.6693   -1.0777   -0.1387 C   0  0  0  0  0  0  0  0  0  0  0  0
    0.9522    0.1925   -0.2747 C   0  0  0  0  0  0  0  0  0  0  0  0
    1.7937    1.2149   -0.6678 O   0  0  0  0  0  0  0  0  0  0  0  0
    0.0964    0.5837    0.9356 C   0  0  0  0  0  0  0  0  0  0  0  0
   -0.7591   -0.6204    1.1859 C   0  0  0  0  0  0  0  0  0  0  0  0
   -1.1130   -0.9595   -0.2784 C   0  0  0  0  0  0  0  0  0  0  0  0
   -0.3842    0.1465   -0.9743 C   0  0  0  0  0  0  0  0  0  0  0  0
   -0.7424    1.3438   -0.0793 C   0  0  0  0  0  0  0  0  0  0  0  0
    1.1292   -1.9563    0.1635 H   0  0  0  0  0  0  0  0  0  0  0  0
    1.4562    1.7682   -1.3904 H   0  0  0  0  0  0  0  0  0  0  0  0
    0.5557    1.1091    1.7253 H   0  0  0  0  0  0  0  0  0  0  0  0
   -0.2460   -1.4481    1.6681 H   0  0  0  0  0  0  0  0  0  0  0  0
   -1.6774   -0.2758    1.7052 H   0  0  0  0  0  0  0  0  0  0  0  0
   -2.2070   -0.8234   -0.4255 H   0  0  0  0  0  0  0  0  0  0  0  0
   -0.7870   -1.9678   -0.5312 H   0  0  0  0  0  0  0  0  0  0  0  0
   -0.4433    0.2767   -2.0203 H   0  0  0  0  0  0  0  0  0  0  0  0
   -0.3279    2.2974   -0.4219 H   0  0  0  0  0  0  0  0  0  0  0  0
   -1.8213    1.3637    0.1763 H   0  0  0  0  0  0  0  0  0  0  0  0
  1  2  2  0
  2  3  1  0
  3  4  1  0
  3  5  1  0
  5  6  1  0
  6  7  1  0
  7  8  1  0
  8  9  1  0
  8  3  1  0
  9  5  1  0
  2 10  1  0
  4 11  1  0
  5 12  1  0
  6 13  1  0
  6 14  1  0
  7 15  1  0
  7 16  1  0
  8 17  1  0
  9 18  1  0
  9 19  1  0
M  END
