
     RDKit          3D

 17 17  0  0  0  0  0  0  0  0999 V2000
    2.2708    1.5684    0.5278 O   0  0  0  0  0  0  0  0  0  0  0  0
    2.5706    0.3617    0.4068 C   0  0  0  0  0  0  0  0  0  0  0  0
    1.5740   -0.5802   -0.0665 C   0  0  0  0  0  0  0  0  0  0  0  0
    1.8732   -1.7950   -0.1891 O   0  0  0  0  0  0  0  0  0  0  0  0
    0.2455   -0.0996   -0.3904 C   0  0  0  0  0  0  0  0  0  0  0  0
   -0.5358    0.5607    0.7298 C   0  0  0  0  0  0  0  0  0  0  0  0
   -1.7666    0.0337   -0.0245 C   0  0  0  0  0  0  0  0  0  0  0  0
   -1.9780    0.7859   -1.1784 O   0  0  0  0  0  0  0  0  0  0  0  0
   -0.8682   -1.1544   -0.3672 C   0  0  0  0  0  0  0  0  0  0  0  0
    3.5856    0.0586    0.6656 H   0  0  0  0  0  0  0  0  0  0  0  0
    0.1428    0.5186   -1.3103 H   0  0  0  0  0  0  0  0  0  0  0  0
   -0.4620    1.6375    0.7926 H   0  0  0  0  0  0  0  0  0  0  0  0
   -0.4572   -0.0114    1.6921 H   0  0  0  0  0  0  0  0  0  0  0  0
   -2.6292   -0.1853    0.5900 H   0  0  0  0  0  0  0  0  0  0  0  0
   -1.7051    1.7390   -1.0532 H   0  0  0  0  0  0  0  0  0  0  0  0
   -0.8006   -1.8174    0.5113 H   0  0  0  0  0  0  0  0  0  0  0  0
   -1.0598   -1.6209   -1.3363 H   0  0  0  0  0  0  0  0  0  0  0  0
  1  2  2  0
  2  3  1  0
  3  4  2  0
  3  5  1  0
  5  6  1  0
  6  7  1  0
  7  8  1  0
  7  9  1  0
  9  5  1  0
  2 10  1  0
  5 11  1  0
  6 12  1  0
  6 13  1  0
  7 14  1  0
  8 15  1  0
  9 16  1  0
  9 17  1  0
M  END
