
     RDKit          3D

 17 17  0  0  0  0  0  0  0  0999 V2000
    2.3100    0.8594    1.0453 O   0  0  0  0  0  0  0  0  0  0  0  0
    2.0215   -0.2647    0.6812 C   0  0  0  0  0  0  0  0  0  0  0  0
    1.2591   -0.5358   -0.5765 C   0  0  0  0  0  0  0  0  0  0  0  0
    0.1395   -1.4263   -0.2441 C   0  0  0  0  0  0  0  0  0  0  0  0
   -1.0125   -0.8708    0.0680 C   0  0  0  0  0  0  0  0  0  0  0  0
   -1.1094    0.6072    0.0650 C   0  0  0  0  0  0  0  0  0  0  0  0
   -2.4338    0.9317   -0.2307 O   0  0  0  0  0  0  0  0  0  0  0  0
   -0.1768    1.2772   -0.8828 C   0  0  0  0  0  0  0  0  0  0  0  0
    0.9414    0.6081   -1.2381 O   0  0  0  0  0  0  0  0  0  0  0  0
    2.3346   -1.0805    1.2993 H   0  0  0  0  0  0  0  0  0  0  0  0
    1.9717   -1.1209   -1.2292 H   0  0  0  0  0  0  0  0  0  0  0  0
    0.2777   -2.5257   -0.2605 H   0  0  0  0  0  0  0  0  0  0  0  0
   -1.8760   -1.4577    0.3229 H   0  0  0  0  0  0  0  0  0  0  0  0
   -0.9494    0.9630    1.1254 H   0  0  0  0  0  0  0  0  0  0  0  0
   -3.0666    0.2543    0.1557 H   0  0  0  0  0  0  0  0  0  0  0  0
   -0.7465    1.5264   -1.8078 H   0  0  0  0  0  0  0  0  0  0  0  0
    0.1156    2.2550   -0.4404 H   0  0  0  0  0  0  0  0  0  0  0  0
  1  2  2  0
  2  3  1  0
  3  4  1  0
  4  5  2  0
  5  6  1  0
  6  7  1  0
  6  8  1  0
  8  9  1  0
  9  3  1  0
  2 10  1  0
  3 11  1  0
  4 12  1  0
  5 13  1  0
  6 14  1  0
  7 15  1  0
  8 16  1  0
  8 17  1  0
M  END
