
     RDKit          3D

 16 16  0  0  0  0  0  0  0  0999 V2000
    1.8689   -2.4681    0.8504 O   0  0  0  0  0  0  0  0  0  0  0  0
    0.8503   -2.7209    1.4659 C   0  0  0  0  0  0  0  0  0  0  0  0
   -0.3114   -1.7966    1.5258 C   0  0  0  0  0  0  0  0  0  0  0  0
   -0.0199   -0.5952    0.7624 C   0  0  0  0  0  0  0  0  0  0  0  0
    0.2216    0.4156    0.0965 C   0  0  0  0  0  0  0  0  0  0  0  0
    0.4824    1.6082   -0.6760 C   0  0  0  0  0  0  0  0  0  0  0  0
   -0.1991    1.7544   -1.9766 C   0  0  0  0  0  0  0  0  0  0  0  0
   -0.7060    2.5902   -0.8556 C   0  0  0  0  0  0  0  0  0  0  0  0
    0.8291   -3.6804    1.9842 H   0  0  0  0  0  0  0  0  0  0  0  0
   -0.5138   -1.5340    2.6047 H   0  0  0  0  0  0  0  0  0  0  0  0
   -1.2154   -2.2578    1.0784 H   0  0  0  0  0  0  0  0  0  0  0  0
    1.4706    2.1161   -0.6032 H   0  0  0  0  0  0  0  0  0  0  0  0
   -0.9279    0.9903   -2.3412 H   0  0  0  0  0  0  0  0  0  0  0  0
    0.3193    2.2598   -2.8175 H   0  0  0  0  0  0  0  0  0  0  0  0
   -1.6486    2.2735   -0.3256 H   0  0  0  0  0  0  0  0  0  0  0  0
   -0.5000    3.6581   -0.7729 H   0  0  0  0  0  0  0  0  0  0  0  0
  1  2  2  0
  2  3  1  0
  3  4  1  0
  4  5  3  0
  5  6  1  0
  6  7  1  0
  7  8  1  0
  8  6  1  0
  2  9  1  0
  3 10  1  0
  3 11  1  0
  6 12  1  0
  7 13  1  0
  7 14  1  0
  8 15  1  0
  8 16  1  0
M  END
