
     RDKit          3D

 15 15  0  0  0  0  0  0  0  0999 V2000
    1.0317    2.0523    1.2217 O   0  0  0  0  0  0  0  0  0  0  0  0
    0.4774    1.6582    0.2277 C   0  0  0  0  0  0  0  0  0  0  0  0
    0.3381    0.1748    0.0593 C   0  0  0  0  0  0  0  0  0  0  0  0
    1.6164   -0.5436    0.1460 C   0  0  0  0  0  0  0  0  0  0  0  0
    2.1936   -0.8224    1.1874 O   0  0  0  0  0  0  0  0  0  0  0  0
   -0.7800   -0.3294    0.9141 C   0  0  0  0  0  0  0  0  0  0  0  0
   -1.4821   -0.8591   -0.2924 C   0  0  0  0  0  0  0  0  0  0  0  0
   -2.4851   -1.5199   -0.5181 O   0  0  0  0  0  0  0  0  0  0  0  0
   -0.4475   -0.2468   -1.1440 C   0  0  0  0  0  0  0  0  0  0  0  0
    0.0908    2.3517   -0.5225 H   0  0  0  0  0  0  0  0  0  0  0  0
    2.1055   -0.8617   -0.7699 H   0  0  0  0  0  0  0  0  0  0  0  0
   -0.5284   -1.0807    1.6737 H   0  0  0  0  0  0  0  0  0  0  0  0
   -1.4261    0.4642    1.3790 H   0  0  0  0  0  0  0  0  0  0  0  0
   -0.7630    0.5954   -1.7839 H   0  0  0  0  0  0  0  0  0  0  0  0
    0.0588   -1.0329   -1.7781 H   0  0  0  0  0  0  0  0  0  0  0  0
  1  2  2  0
  2  3  1  0
  3  4  1  0
  4  5  2  0
  3  6  1  0
  6  7  1  0
  7  8  2  0
  7  9  1  0
  9  3  1  0
  2 10  1  0
  4 11  1  0
  6 12  1  0
  6 13  1  0
  9 14  1  0
  9 15  1  0
M  END
