
     RDKit          3D

 13 13  0  0  0  0  0  0  0  0999 V2000
    3.6409   -0.5932    1.3902 O   0  0  0  0  0  0  0  0  0  0  0  0
    2.8459    0.3622    1.5549 C   0  0  0  0  0  0  0  0  0  0  0  0
    1.5226    0.3807    0.9935 C   0  0  0  0  0  0  0  0  0  0  0  0
    0.3911    0.3908    0.5327 C   0  0  0  0  0  0  0  0  0  0  0  0
   -0.9703    0.4020    0.0038 C   0  0  0  0  0  0  0  0  0  0  0  0
   -1.0071   -0.0892   -1.3991 C   0  0  0  0  0  0  0  0  0  0  0  0
   -2.0656   -0.9914   -0.8418 C   0  0  0  0  0  0  0  0  0  0  0  0
   -2.9163   -1.6762   -1.4693 O   0  0  0  0  0  0  0  0  0  0  0  0
   -1.6833   -0.7222    0.4659 O   0  0  0  0  0  0  0  0  0  0  0  0
    3.2074    1.1956    2.1539 H   0  0  0  0  0  0  0  0  0  0  0  0
   -1.4938    1.3836    0.1350 H   0  0  0  0  0  0  0  0  0  0  0  0
   -0.1125   -0.6583   -1.7172 H   0  0  0  0  0  0  0  0  0  0  0  0
   -1.3591    0.6157   -2.1668 H   0  0  0  0  0  0  0  0  0  0  0  0
  1  2  2  0
  2  3  1  0
  3  4  3  0
  4  5  1  0
  5  6  1  0
  6  7  1  0
  7  8  2  0
  7  9  1  0
  9  5  1  0
  2 10  1  0
  5 11  1  0
  6 12  1  0
  6 13  1  0
M  END
