
     RDKit          3D

 17 17  0  0  0  0  0  0  0  0999 V2000
    2.5775    0.5652    1.2055 O   0  0  0  0  0  0  0  0  0  0  0  0
    2.4157    0.0798    0.0802 C   0  0  0  0  0  0  0  0  0  0  0  0
    1.1998   -0.6592   -0.2720 C   0  0  0  0  0  0  0  0  0  0  0  0
    0.0318    0.1875   -0.6754 C   0  0  0  0  0  0  0  0  0  0  0  0
   -0.3744    1.1235    0.4431 C   0  0  0  0  0  0  0  0  0  0  0  0
   -1.1630   -0.0162    1.0094 C   0  0  0  0  0  0  0  0  0  0  0  0
   -1.5644   -0.3970    2.0968 O   0  0  0  0  0  0  0  0  0  0  0  0
   -1.2667   -0.5275   -0.3890 C   0  0  0  0  0  0  0  0  0  0  0  0
   -2.3867    0.0288   -0.9953 O   0  0  0  0  0  0  0  0  0  0  0  0
    3.2054    0.2076   -0.6738 H   0  0  0  0  0  0  0  0  0  0  0  0
    1.3922   -1.3867   -1.0951 H   0  0  0  0  0  0  0  0  0  0  0  0
    0.8728   -1.2371    0.6452 H   0  0  0  0  0  0  0  0  0  0  0  0
    0.0966    0.6561   -1.6781 H   0  0  0  0  0  0  0  0  0  0  0  0
   -1.1019    1.9151    0.1284 H   0  0  0  0  0  0  0  0  0  0  0  0
    0.4442    1.4815    1.0931 H   0  0  0  0  0  0  0  0  0  0  0  0
   -1.2049   -1.6306   -0.3931 H   0  0  0  0  0  0  0  0  0  0  0  0
   -3.1741   -0.3907   -0.5299 H   0  0  0  0  0  0  0  0  0  0  0  0
  1  2  2  0
  2  3  1  0
  3  4  1  0
  4  5  1  0
  5  6  1  0
  6  7  2  0
  6  8  1  0
  8  9  1  0
  8  4  1  0
  2 10  1  0
  3 11  1  0
  3 12  1  0
  4 13  1  0
  5 14  1  0
  5 15  1  0
  8 16  1  0
  9 17  1  0
M  END
