
     RDKit          3D

 17 18  0  0  0  0  0  0  0  0999 V2000
    2.7066   -1.6080   -0.6716 O   0  0  0  0  0  0  0  0  0  0  0  0
    1.9830   -0.6338   -0.6800 C   0  0  0  0  0  0  0  0  0  0  0  0
    0.7132   -0.6576    0.0351 C   0  0  0  0  0  0  0  0  0  0  0  0
   -0.5174   -0.2757   -0.7728 C   0  0  0  0  0  0  0  0  0  0  0  0
   -1.6146   -0.4100    0.2588 C   0  0  0  0  0  0  0  0  0  0  0  0
   -0.9046    0.2215    1.4004 C   0  0  0  0  0  0  0  0  0  0  0  0
   -1.2647    0.3629    2.5216 O   0  0  0  0  0  0  0  0  0  0  0  0
    0.3680    0.6332    0.7951 C   0  0  0  0  0  0  0  0  0  0  0  0
   -0.0810    1.1650   -0.5427 C   0  0  0  0  0  0  0  0  0  0  0  0
    2.2902    0.2428   -1.2198 H   0  0  0  0  0  0  0  0  0  0  0  0
    0.4860   -1.5449    0.6384 H   0  0  0  0  0  0  0  0  0  0  0  0
   -0.6409   -0.6369   -1.7502 H   0  0  0  0  0  0  0  0  0  0  0  0
   -1.8265   -1.4784    0.4099 H   0  0  0  0  0  0  0  0  0  0  0  0
   -2.5174    0.1585   -0.0380 H   0  0  0  0  0  0  0  0  0  0  0  0
    1.1251    1.1100    1.3395 H   0  0  0  0  0  0  0  0  0  0  0  0
   -0.9955    1.8080   -0.5159 H   0  0  0  0  0  0  0  0  0  0  0  0
    0.6907    1.5435   -1.2075 H   0  0  0  0  0  0  0  0  0  0  0  0
  1  2  2  0
  2  3  1  0
  3  4  1  0
  4  5  1  0
  5  6  1  0
  6  7  2  0
  6  8  1  0
  8  9  1  0
  8  3  1  0
  9  4  1  0
  2 10  1  0
  3 11  1  0
  4 12  1  0
  5 13  1  0
  5 14  1  0
  8 15  1  0
  9 16  1  0
  9 17  1  0
M  END
