
     RDKit          3D

 14 14  0  0  0  0  0  0  0  0999 V2000
   -3.0688   -0.4522   -0.4793 O   0  0  0  0  0  0  0  0  0  0  0  0
   -2.3943   -0.4951    0.5812 C   0  0  0  0  0  0  0  0  0  0  0  0
   -0.9878   -0.1432    0.6128 C   0  0  0  0  0  0  0  0  0  0  0  0
   -0.3318   -0.1916    1.6772 O   0  0  0  0  0  0  0  0  0  0  0  0
   -0.3211    0.2802   -0.6392 C   0  0  0  0  0  0  0  0  0  0  0  0
    1.1145    0.5983   -0.4032 C   0  0  0  0  0  0  0  0  0  0  0  0
    2.0925   -0.3241    0.1013 C   0  0  0  0  0  0  0  0  0  0  0  0
    1.9536   -0.2754   -1.2642 O   0  0  0  0  0  0  0  0  0  0  0  0
   -2.9310   -0.8137    1.4794 H   0  0  0  0  0  0  0  0  0  0  0  0
   -0.4637   -0.4519   -1.4620 H   0  0  0  0  0  0  0  0  0  0  0  0
   -0.8335    1.2548   -0.9101 H   0  0  0  0  0  0  0  0  0  0  0  0
    1.4165    1.6637   -0.5036 H   0  0  0  0  0  0  0  0  0  0  0  0
    1.7361   -1.2288    0.6681 H   0  0  0  0  0  0  0  0  0  0  0  0
    3.0189    0.0920    0.5416 H   0  0  0  0  0  0  0  0  0  0  0  0
  1  2  2  0
  2  3  1  0
  3  4  2  0
  3  5  1  0
  5  6  1  0
  6  7  1  0
  7  8  1  0
  8  6  1  0
  2  9  1  0
  5 10  1  0
  5 11  1  0
  6 12  1  0
  7 13  1  0
  7 14  1  0
M  END
