
     RDKit          3D

 15 16  0  0  0  0  0  0  0  0999 V2000
    2.5924    1.2228   -0.2133 O   0  0  0  0  0  0  0  0  0  0  0  0
    1.9305    0.2205   -0.0524 C   0  0  0  0  0  0  0  0  0  0  0  0
    0.5892    0.0761   -0.6595 C   0  0  0  0  0  0  0  0  0  0  0  0
   -0.0499   -1.1991   -0.1841 C   0  0  0  0  0  0  0  0  0  0  0  0
   -1.1122   -0.8169    0.7685 C   0  0  0  0  0  0  0  0  0  0  0  0
   -1.5871   -1.5219    1.6274 O   0  0  0  0  0  0  0  0  0  0  0  0
   -1.4898    0.5602    0.4935 C   0  0  0  0  0  0  0  0  0  0  0  0
   -1.6366    1.0193   -0.8107 O   0  0  0  0  0  0  0  0  0  0  0  0
   -0.3703    1.1391   -0.2464 C   0  0  0  0  0  0  0  0  0  0  0  0
    2.3663   -0.5645    0.5564 H   0  0  0  0  0  0  0  0  0  0  0  0
    0.6721    0.1049   -1.7843 H   0  0  0  0  0  0  0  0  0  0  0  0
    0.6870   -1.9142    0.2453 H   0  0  0  0  0  0  0  0  0  0  0  0
   -0.5632   -1.6463   -1.0826 H   0  0  0  0  0  0  0  0  0  0  0  0
   -2.0169    1.1912    1.2421 H   0  0  0  0  0  0  0  0  0  0  0  0
   -0.0115    2.1287    0.1001 H   0  0  0  0  0  0  0  0  0  0  0  0
  1  2  2  0
  2  3  1  0
  3  4  1  0
  4  5  1  0
  5  6  2  0
  5  7  1  0
  7  8  1  0
  8  9  1  0
  9  3  1  0
  9  7  1  0
  2 10  1  0
  3 11  1  0
  4 12  1  0
  4 13  1  0
  7 14  1  0
  9 15  1  0
M  END
