
     RDKit          3D

 17 17  0  0  0  0  0  0  0  0999 V2000
   -3.0702    1.2792   -0.4002 O   0  0  0  0  0  0  0  0  0  0  0  0
   -2.2349    0.4591   -0.7273 C   0  0  0  0  0  0  0  0  0  0  0  0
   -1.4412   -0.3101    0.2500 C   0  0  0  0  0  0  0  0  0  0  0  0
   -1.8277    0.0778    1.5254 O   0  0  0  0  0  0  0  0  0  0  0  0
    0.0249   -0.1697    0.0335 C   0  0  0  0  0  0  0  0  0  0  0  0
    0.6943    0.5208   -0.8764 C   0  0  0  0  0  0  0  0  0  0  0  0
    2.1528    0.3441   -0.6821 C   0  0  0  0  0  0  0  0  0  0  0  0
    2.2708   -0.6493    0.2751 O   0  0  0  0  0  0  0  0  0  0  0  0
    1.0547   -0.8340    0.8695 C   0  0  0  0  0  0  0  0  0  0  0  0
   -2.1066    0.3251   -1.8162 H   0  0  0  0  0  0  0  0  0  0  0  0
   -1.7599   -1.3829    0.1453 H   0  0  0  0  0  0  0  0  0  0  0  0
   -1.0963    0.1891    2.1565 H   0  0  0  0  0  0  0  0  0  0  0  0
    0.2047    1.1150   -1.6345 H   0  0  0  0  0  0  0  0  0  0  0  0
    2.6523    1.2634   -0.3272 H   0  0  0  0  0  0  0  0  0  0  0  0
    2.6621    0.0609   -1.6357 H   0  0  0  0  0  0  0  0  0  0  0  0
    1.0286   -0.3726    1.8739 H   0  0  0  0  0  0  0  0  0  0  0  0
    0.7917   -1.9159    0.9704 H   0  0  0  0  0  0  0  0  0  0  0  0
  1  2  2  0
  2  3  1  0
  3  4  1  0
  3  5  1  0
  5  6  2  0
  6  7  1  0
  7  8  1  0
  8  9  1  0
  9  5  1  0
  2 10  1  0
  3 11  1  0
  4 12  1  0
  6 13  1  0
  7 14  1  0
  7 15  1  0
  9 16  1  0
  9 17  1  0
M  END
