
     RDKit          3D

 17 18  0  0  0  0  0  0  0  0999 V2000
    2.6293    0.4114    1.0722 O   0  0  0  0  0  0  0  0  0  0  0  0
    1.6658   -0.3207    1.1351 C   0  0  0  0  0  0  0  0  0  0  0  0
    1.0190   -0.7463   -0.1307 C   0  0  0  0  0  0  0  0  0  0  0  0
    1.6225   -0.2320   -1.2788 O   0  0  0  0  0  0  0  0  0  0  0  0
    0.6161    0.7442   -1.4656 C   0  0  0  0  0  0  0  0  0  0  0  0
   -0.2171   -0.0188   -0.5190 C   0  0  0  0  0  0  0  0  0  0  0  0
   -1.0093    0.6746    0.4982 C   0  0  0  0  0  0  0  0  0  0  0  0
   -1.8716   -0.5561    0.3086 C   0  0  0  0  0  0  0  0  0  0  0  0
   -1.2861   -0.7216   -0.9658 O   0  0  0  0  0  0  0  0  0  0  0  0
    1.3131   -0.6357    2.0927 H   0  0  0  0  0  0  0  0  0  0  0  0
    0.9426   -1.8510   -0.1993 H   0  0  0  0  0  0  0  0  0  0  0  0
    0.9906    1.6946   -0.9828 H   0  0  0  0  0  0  0  0  0  0  0  0
    0.2743    0.8691   -2.4906 H   0  0  0  0  0  0  0  0  0  0  0  0
   -0.5920    0.8114    1.5045 H   0  0  0  0  0  0  0  0  0  0  0  0
   -1.5308    1.5746    0.0917 H   0  0  0  0  0  0  0  0  0  0  0  0
   -1.6221   -1.3489    1.0293 H   0  0  0  0  0  0  0  0  0  0  0  0
   -2.9444   -0.3489    0.3003 H   0  0  0  0  0  0  0  0  0  0  0  0
  1  2  2  0
  2  3  1  0
  3  4  1  0
  4  5  1  0
  5  6  1  0
  6  7  1  0
  7  8  1  0
  8  9  1  0
  6  3  1  0
  9  6  1  0
  2 10  1  0
  3 11  1  0
  5 12  1  0
  5 13  1  0
  7 14  1  0
  7 15  1  0
  8 16  1  0
  8 17  1  0
M  END
