
     RDKit          3D

 15 14  0  0  0  0  0  0  0  0999 V2000
   -2.6926    1.3409    0.6884 O   0  0  0  0  0  0  0  0  0  0  0  0
   -2.0867    0.7349   -0.1936 C   0  0  0  0  0  0  0  0  0  0  0  0
   -1.3295   -0.5092    0.0752 C   0  0  0  0  0  0  0  0  0  0  0  0
   -0.0253   -0.2646    0.7137 C   0  0  0  0  0  0  0  0  0  0  0  0
    0.0413    0.0500    1.8894 O   0  0  0  0  0  0  0  0  0  0  0  0
    1.2491   -0.3900   -0.0414 C   0  0  0  0  0  0  0  0  0  0  0  0
    0.9913   -0.7503   -1.3563 O   0  0  0  0  0  0  0  0  0  0  0  0
    1.9567    0.9135    0.0496 C   0  0  0  0  0  0  0  0  0  0  0  0
    2.2307    1.3204    1.1664 O   0  0  0  0  0  0  0  0  0  0  0  0
   -2.1363    1.1648   -1.1926 H   0  0  0  0  0  0  0  0  0  0  0  0
   -1.2347   -1.0772   -0.8742 H   0  0  0  0  0  0  0  0  0  0  0  0
   -1.9308   -1.1462    0.7741 H   0  0  0  0  0  0  0  0  0  0  0  0
    1.9017   -1.1639    0.4172 H   0  0  0  0  0  0  0  0  0  0  0  0
    0.8220   -1.7432   -1.3343 H   0  0  0  0  0  0  0  0  0  0  0  0
    2.2431    1.5201   -0.7816 H   0  0  0  0  0  0  0  0  0  0  0  0
  1  2  2  0
  2  3  1  0
  3  4  1  0
  4  5  2  0
  4  6  1  0
  6  7  1  0
  6  8  1  0
  8  9  2  0
  2 10  1  0
  3 11  1  0
  3 12  1  0
  6 13  1  0
  7 14  1  0
  8 15  1  0
M  END
