
     RDKit          3D

 17 17  0  0  0  0  0  0  0  0999 V2000
    2.6254    2.8878    0.6301 O   0  0  0  0  0  0  0  0  0  0  0  0
    1.7524    2.4108    1.4060 C   0  0  0  0  0  0  0  0  0  0  0  0
    1.0762    1.1813    1.1737 C   0  0  0  0  0  0  0  0  0  0  0  0
    0.5547    0.2456    1.0100 C   0  0  0  0  0  0  0  0  0  0  0  0
   -0.1883   -1.1338    0.7872 C   0  0  0  0  0  0  0  0  0  0  0  0
    0.8183   -2.0880    0.8370 O   0  0  0  0  0  0  0  0  0  0  0  0
   -0.7296   -1.0947   -0.5826 C   0  0  0  0  0  0  0  0  0  0  0  0
   -1.7014   -0.0979   -1.0842 C   0  0  0  0  0  0  0  0  0  0  0  0
   -0.3028    0.0219   -1.5187 C   0  0  0  0  0  0  0  0  0  0  0  0
    1.5250    2.9845    2.2873 H   0  0  0  0  0  0  0  0  0  0  0  0
   -0.8894   -1.1735    1.6184 H   0  0  0  0  0  0  0  0  0  0  0  0
    0.5998   -2.8970    0.3421 H   0  0  0  0  0  0  0  0  0  0  0  0
   -0.8583   -2.1017   -1.0803 H   0  0  0  0  0  0  0  0  0  0  0  0
   -2.1116    0.6473   -0.3410 H   0  0  0  0  0  0  0  0  0  0  0  0
   -2.4616   -0.3939   -1.8263 H   0  0  0  0  0  0  0  0  0  0  0  0
    0.0236   -0.2785   -2.5481 H   0  0  0  0  0  0  0  0  0  0  0  0
    0.2677    0.8798   -1.1107 H   0  0  0  0  0  0  0  0  0  0  0  0
  1  2  2  0
  2  3  1  0
  3  4  3  0
  4  5  1  0
  5  6  1  0
  5  7  1  0
  7  8  1  0
  8  9  1  0
  9  7  1  0
  2 10  1  0
  5 11  1  0
  6 12  1  0
  7 13  1  0
  8 14  1  0
  8 15  1  0
  9 16  1  0
  9 17  1  0
M  END
