
     RDKit          3D

 17 19  0  0  0  0  0  0  0  0999 V2000
   -1.8138    0.0028    2.2153 O   0  0  0  0  0  0  0  0  0  0  0  0
   -1.4649    0.8279    1.3856 C   0  0  0  0  0  0  0  0  0  0  0  0
   -0.6439    0.3895    0.2648 C   0  0  0  0  0  0  0  0  0  0  0  0
   -1.0707   -0.8889   -0.4304 C   0  0  0  0  0  0  0  0  0  0  0  0
    0.3653   -1.3039   -0.4482 C   0  0  0  0  0  0  0  0  0  0  0  0
    1.4499   -0.2360   -0.4823 C   0  0  0  0  0  0  0  0  0  0  0  0
    1.0397    1.1346   -1.0227 C   0  0  0  0  0  0  0  0  0  0  0  0
   -0.2614    1.3282   -0.6566 O   0  0  0  0  0  0  0  0  0  0  0  0
    0.5863   -0.3713    0.6735 C   0  0  0  0  0  0  0  0  0  0  0  0
   -1.8044    1.8428    1.5579 H   0  0  0  0  0  0  0  0  0  0  0  0
   -1.4675   -0.7751   -1.4438 H   0  0  0  0  0  0  0  0  0  0  0  0
   -1.7515   -1.5231    0.1825 H   0  0  0  0  0  0  0  0  0  0  0  0
    0.6850   -2.3305   -0.2996 H   0  0  0  0  0  0  0  0  0  0  0  0
    2.4707   -0.5599   -0.5897 H   0  0  0  0  0  0  0  0  0  0  0  0
    1.6623    1.8885   -0.4678 H   0  0  0  0  0  0  0  0  0  0  0  0
    1.1872    1.2043   -2.1138 H   0  0  0  0  0  0  0  0  0  0  0  0
    0.8316   -0.6299    1.6753 H   0  0  0  0  0  0  0  0  0  0  0  0
  1  2  2  0
  2  3  1  0
  3  4  1  0
  4  5  1  0
  5  6  1  0
  6  7  1  0
  7  8  1  0
  6  9  1  0
  8  3  1  0
  9  3  1  0
  9  5  1  0
  2 10  1  0
  4 11  1  0
  4 12  1  0
  5 13  1  0
  6 14  1  0
  7 15  1  0
  7 16  1  0
  9 17  1  0
M  END
