
     RDKit          3D

 17 17  0  0  0  0  0  0  0  0999 V2000
    3.1827   -1.2291   -0.2611 O   0  0  0  0  0  0  0  0  0  0  0  0
    2.7217   -0.1696    0.0978 C   0  0  0  0  0  0  0  0  0  0  0  0
    1.3007   -0.0005    0.4746 C   0  0  0  0  0  0  0  0  0  0  0  0
    0.4873    0.0696   -0.7448 C   0  0  0  0  0  0  0  0  0  0  0  0
    1.0426   -0.0135   -1.8277 O   0  0  0  0  0  0  0  0  0  0  0  0
   -0.9895    0.2375   -0.7529 C   0  0  0  0  0  0  0  0  0  0  0  0
   -1.6412   -0.9158   -0.0288 C   0  0  0  0  0  0  0  0  0  0  0  0
   -2.5451   -0.0439    0.5678 O   0  0  0  0  0  0  0  0  0  0  0  0
   -1.5642    0.9624    0.4383 C   0  0  0  0  0  0  0  0  0  0  0  0
    3.3760    0.6861    0.1443 H   0  0  0  0  0  0  0  0  0  0  0  0
    0.9286   -0.8818    1.0697 H   0  0  0  0  0  0  0  0  0  0  0  0
    1.1552    0.8654    1.1531 H   0  0  0  0  0  0  0  0  0  0  0  0
   -1.4009    0.4993   -1.7232 H   0  0  0  0  0  0  0  0  0  0  0  0
   -2.0817   -1.6120   -0.7775 H   0  0  0  0  0  0  0  0  0  0  0  0
   -1.0137   -1.3902    0.7373 H   0  0  0  0  0  0  0  0  0  0  0  0
   -2.0625    1.9037    0.1263 H   0  0  0  0  0  0  0  0  0  0  0  0
   -0.8961    1.0323    1.3069 H   0  0  0  0  0  0  0  0  0  0  0  0
  1  2  2  0
  2  3  1  0
  3  4  1  0
  4  5  2  0
  4  6  1  0
  6  7  1  0
  7  8  1  0
  8  9  1  0
  9  6  1  0
  2 10  1  0
  3 11  1  0
  3 12  1  0
  6 13  1  0
  7 14  1  0
  7 15  1  0
  9 16  1  0
  9 17  1  0
M  END
