
     RDKit          3D

 17 18  0  0  0  0  0  0  0  0999 V2000
    2.0945   -0.3138   -1.7839 O   0  0  0  0  0  0  0  0  0  0  0  0
    2.1120   -0.3490   -0.5602 C   0  0  0  0  0  0  0  0  0  0  0  0
    0.8562    0.0038    0.1586 C   0  0  0  0  0  0  0  0  0  0  0  0
    0.8251   -0.0207    1.5286 O   0  0  0  0  0  0  0  0  0  0  0  0
    0.1630   -1.0298    0.8634 C   0  0  0  0  0  0  0  0  0  0  0  0
   -1.2839   -0.9054    0.5182 C   0  0  0  0  0  0  0  0  0  0  0  0
   -1.4315    0.2756   -0.4086 C   0  0  0  0  0  0  0  0  0  0  0  0
   -0.1095    0.9545   -0.4939 C   0  0  0  0  0  0  0  0  0  0  0  0
   -0.1868    2.1779    0.1694 O   0  0  0  0  0  0  0  0  0  0  0  0
    3.0302   -0.6314   -0.0846 H   0  0  0  0  0  0  0  0  0  0  0  0
    0.5854   -2.0310    1.0072 H   0  0  0  0  0  0  0  0  0  0  0  0
   -1.8882   -0.8153    1.4317 H   0  0  0  0  0  0  0  0  0  0  0  0
   -1.5603   -1.8287   -0.0686 H   0  0  0  0  0  0  0  0  0  0  0  0
   -1.8549   -0.0171   -1.4008 H   0  0  0  0  0  0  0  0  0  0  0  0
   -2.2008    0.9438    0.0533 H   0  0  0  0  0  0  0  0  0  0  0  0
    0.1841    1.1689   -1.5463 H   0  0  0  0  0  0  0  0  0  0  0  0
    0.6653    2.4180    0.6165 H   0  0  0  0  0  0  0  0  0  0  0  0
  1  2  2  0
  2  3  1  0
  3  4  1  0
  4  5  1  0
  5  6  1  0
  6  7  1  0
  7  8  1  0
  8  9  1  0
  5  3  1  0
  8  3  1  0
  2 10  1  0
  5 11  1  0
  6 12  1  0
  6 13  1  0
  7 14  1  0
  7 15  1  0
  8 16  1  0
  9 17  1  0
M  END
