
     RDKit          3D

 17 18  0  0  0  0  0  0  0  0999 V2000
    3.2991   -0.6563   -0.3614 O   0  0  0  0  0  0  0  0  0  0  0  0
    2.4979   -0.5834    0.5964 C   0  0  0  0  0  0  0  0  0  0  0  0
    1.1011   -0.2379    0.3685 C   0  0  0  0  0  0  0  0  0  0  0  0
    0.1614   -0.1296    1.2935 C   0  0  0  0  0  0  0  0  0  0  0  0
   -1.1416    0.2317    0.7439 C   0  0  0  0  0  0  0  0  0  0  0  0
   -1.7752   -0.6433   -0.2623 C   0  0  0  0  0  0  0  0  0  0  0  0
   -0.8456    0.4647   -0.7079 C   0  0  0  0  0  0  0  0  0  0  0  0
   -1.3900    1.6087   -1.2618 O   0  0  0  0  0  0  0  0  0  0  0  0
    0.5430    0.0423   -0.9732 C   0  0  0  0  0  0  0  0  0  0  0  0
    2.8070   -0.7708    1.6112 H   0  0  0  0  0  0  0  0  0  0  0  0
    0.3411   -0.2926    2.3526 H   0  0  0  0  0  0  0  0  0  0  0  0
   -1.7767    0.9795    1.2555 H   0  0  0  0  0  0  0  0  0  0  0  0
   -2.8296   -0.5405   -0.5433 H   0  0  0  0  0  0  0  0  0  0  0  0
   -1.4102   -1.6980   -0.3571 H   0  0  0  0  0  0  0  0  0  0  0  0
   -1.2917    2.3881   -0.6479 H   0  0  0  0  0  0  0  0  0  0  0  0
    0.5584   -0.9233   -1.5565 H   0  0  0  0  0  0  0  0  0  0  0  0
    1.1517    0.7608   -1.5503 H   0  0  0  0  0  0  0  0  0  0  0  0
  1  2  2  0
  2  3  1  0
  3  4  2  0
  4  5  1  0
  5  6  1  0
  6  7  1  0
  7  8  1  0
  7  9  1  0
  9  3  1  0
  7  5  1  0
  2 10  1  0
  4 11  1  0
  5 12  1  0
  6 13  1  0
  6 14  1  0
  8 15  1  0
  9 16  1  0
  9 17  1  0
M  END
