
     RDKit          3D

 18 19  0  0  0  0  0  0  0  0999 V2000
    2.9694    0.8552    0.3034 O   0  0  0  0  0  0  0  0  0  0  0  0
    2.1266    0.3506   -0.3790 C   0  0  0  0  0  0  0  0  0  0  0  0
    0.9739   -0.3030    0.2406 C   0  0  0  0  0  0  0  0  0  0  0  0
    0.0913   -1.0027   -0.8122 C   0  0  0  0  0  0  0  0  0  0  0  0
   -1.2340   -0.4320   -0.4013 C   0  0  0  0  0  0  0  0  0  0  0  0
   -1.1909   -0.3564    1.1129 C   0  0  0  0  0  0  0  0  0  0  0  0
   -0.0319    0.6131    0.8390 C   0  0  0  0  0  0  0  0  0  0  0  0
   -0.8792    1.0618   -0.3573 C   0  0  0  0  0  0  0  0  0  0  0  0
    2.2056    0.3709   -1.4553 H   0  0  0  0  0  0  0  0  0  0  0  0
    1.2579   -1.0821    0.9641 H   0  0  0  0  0  0  0  0  0  0  0  0
    0.3740   -0.5420   -1.7765 H   0  0  0  0  0  0  0  0  0  0  0  0
    0.1702   -2.0788   -0.7644 H   0  0  0  0  0  0  0  0  0  0  0  0
   -2.1266   -0.7144   -0.8858 H   0  0  0  0  0  0  0  0  0  0  0  0
   -2.0534    0.1799    1.5240 H   0  0  0  0  0  0  0  0  0  0  0  0
   -0.8408   -1.2470    1.6309 H   0  0  0  0  0  0  0  0  0  0  0  0
    0.2094    1.3227    1.5783 H   0  0  0  0  0  0  0  0  0  0  0  0
   -0.3001    1.3016   -1.2612 H   0  0  0  0  0  0  0  0  0  0  0  0
   -1.7216    1.7026   -0.1001 H   0  0  0  0  0  0  0  0  0  0  0  0
  1  2  2  0
  2  3  1  0
  3  4  1  0
  4  5  1  0
  5  6  1  0
  6  7  1  0
  7  8  1  0
  7  3  1  0
  8  5  1  0
  2  9  1  0
  3 10  1  0
  4 11  1  0
  4 12  1  0
  5 13  1  0
  6 14  1  0
  6 15  1  0
  7 16  1  0
  8 17  1  0
  8 18  1  0
M  END
