
     RDKit          3D

 19 20  0  0  0  0  0  0  0  0999 V2000
    2.3807   -0.7062    1.3650 O   0  0  0  0  0  0  0  0  0  0  0  0
    2.3127    0.3434    0.7493 C   0  0  0  0  0  0  0  0  0  0  0  0
    1.3091    0.5161   -0.3304 C   0  0  0  0  0  0  0  0  0  0  0  0
    1.0482   -0.6421   -1.2607 C   0  0  0  0  0  0  0  0  0  0  0  0
    0.0152   -0.1584   -0.3427 C   0  0  0  0  0  0  0  0  0  0  0  0
   -0.5617   -0.9488    0.7700 C   0  0  0  0  0  0  0  0  0  0  0  0
   -1.6334   -0.0367    1.2906 C   0  0  0  0  0  0  0  0  0  0  0  0
   -2.0030    0.7980    0.3363 C   0  0  0  0  0  0  0  0  0  0  0  0
   -1.2273    0.5378   -0.9123 C   0  0  0  0  0  0  0  0  0  0  0  0
    3.0166    1.1169    1.0386 H   0  0  0  0  0  0  0  0  0  0  0  0
    1.3201    1.5209   -0.8487 H   0  0  0  0  0  0  0  0  0  0  0  0
    0.8721   -0.4472   -2.3430 H   0  0  0  0  0  0  0  0  0  0  0  0
    1.6089   -1.5917   -1.0550 H   0  0  0  0  0  0  0  0  0  0  0  0
    0.1248   -1.2693    1.5516 H   0  0  0  0  0  0  0  0  0  0  0  0
   -1.1231   -1.8129    0.3123 H   0  0  0  0  0  0  0  0  0  0  0  0
   -2.0506   -0.0473    2.2900 H   0  0  0  0  0  0  0  0  0  0  0  0
   -2.7559    1.5825    0.3887 H   0  0  0  0  0  0  0  0  0  0  0  0
   -0.9393    1.4611   -1.4368 H   0  0  0  0  0  0  0  0  0  0  0  0
   -1.7142   -0.2161   -1.5628 H   0  0  0  0  0  0  0  0  0  0  0  0
  1  2  2  0
  2  3  1  0
  3  4  1  0
  4  5  1  0
  5  6  1  0
  6  7  1  0
  7  8  2  0
  8  9  1  0
  5  3  1  0
  9  5  1  0
  2 10  1  0
  3 11  1  0
  4 12  1  0
  4 13  1  0
  6 14  1  0
  6 15  1  0
  7 16  1  0
  8 17  1  0
  9 18  1  0
  9 19  1  0
M  END
