
     RDKit          3D

 16 17  0  0  0  0  0  0  0  0999 V2000
    2.3922    0.3277   -1.3476 O   0  0  0  0  0  0  0  0  0  0  0  0
    1.8537   -0.2000   -0.3603 C   0  0  0  0  0  0  0  0  0  0  0  0
    0.5792    0.0202    0.0053 C   0  0  0  0  0  0  0  0  0  0  0  0
    0.0074    0.0311    1.3992 C   0  0  0  0  0  0  0  0  0  0  0  0
   -1.1695    0.3608    0.5166 C   0  0  0  0  0  0  0  0  0  0  0  0
   -0.2292    1.2621   -0.2310 C   0  0  0  0  0  0  0  0  0  0  0  0
   -0.6578   -0.7512   -0.3610 C   0  0  0  0  0  0  0  0  0  0  0  0
   -1.0442   -0.7155   -1.6782 O   0  0  0  0  0  0  0  0  0  0  0  0
    2.5482   -0.8704    0.1792 H   0  0  0  0  0  0  0  0  0  0  0  0
   -0.0458   -1.0022    1.7947 H   0  0  0  0  0  0  0  0  0  0  0  0
    0.3502    0.8086    2.0750 H   0  0  0  0  0  0  0  0  0  0  0  0
   -2.1093    0.5382    0.7948 H   0  0  0  0  0  0  0  0  0  0  0  0
   -0.5330    1.3844   -1.2762 H   0  0  0  0  0  0  0  0  0  0  0  0
    0.0836    2.1710    0.2781 H   0  0  0  0  0  0  0  0  0  0  0  0
   -0.7632   -1.7192    0.1658 H   0  0  0  0  0  0  0  0  0  0  0  0
   -1.2624   -1.6458   -1.9544 H   0  0  0  0  0  0  0  0  0  0  0  0
  1  2  2  0
  2  3  1  0
  3  4  1  0
  4  5  1  0
  5  6  1  0
  5  7  1  0
  7  8  1  0
  6  3  1  0
  7  3  1  0
  2  9  1  0
  4 10  1  0
  4 11  1  0
  5 12  1  0
  6 13  1  0
  6 14  1  0
  7 15  1  0
  8 16  1  0
M  END
