
     RDKit          3D

 19 20  0  0  0  0  0  0  0  0999 V2000
    3.1541    1.0025    1.0197 O   0  0  0  0  0  0  0  0  0  0  0  0
    2.9040    0.2953    0.0786 C   0  0  0  0  0  0  0  0  0  0  0  0
    1.5409    0.1828   -0.4361 C   0  0  0  0  0  0  0  0  0  0  0  0
    0.7736   -1.0677    0.0178 C   0  0  0  0  0  0  0  0  0  0  0  0
   -0.2696   -0.0516    0.1338 C   0  0  0  0  0  0  0  0  0  0  0  0
   -1.2742    0.0934   -0.9631 C   0  0  0  0  0  0  0  0  0  0  0  0
   -2.1686    0.7093    0.1262 C   0  0  0  0  0  0  0  0  0  0  0  0
   -1.3699   -0.1755    1.0978 C   0  0  0  0  0  0  0  0  0  0  0  0
    0.6401    0.9681    0.2839 O   0  0  0  0  0  0  0  0  0  0  0  0
    3.7005   -0.2662   -0.3941 H   0  0  0  0  0  0  0  0  0  0  0  0
    1.4231    0.3407   -1.5366 H   0  0  0  0  0  0  0  0  0  0  0  0
    0.7061   -1.8062   -0.7980 H   0  0  0  0  0  0  0  0  0  0  0  0
    1.1903   -1.4525    0.9480 H   0  0  0  0  0  0  0  0  0  0  0  0
   -1.0350    0.8178   -1.7455 H   0  0  0  0  0  0  0  0  0  0  0  0
   -1.7097   -0.8735   -1.2860 H   0  0  0  0  0  0  0  0  0  0  0  0
   -3.2213    0.4743    0.0474 H   0  0  0  0  0  0  0  0  0  0  0  0
   -1.8765    1.7615    0.2534 H   0  0  0  0  0  0  0  0  0  0  0  0
   -1.8212   -1.2079    1.0628 H   0  0  0  0  0  0  0  0  0  0  0  0
   -1.2868    0.2553    2.0898 H   0  0  0  0  0  0  0  0  0  0  0  0
  1  2  2  0
  2  3  1  0
  3  4  1  0
  4  5  1  0
  5  6  1  0
  6  7  1  0
  7  8  1  0
  5  9  1  0
  9  3  1  0
  8  5  1  0
  2 10  1  0
  3 11  1  0
  4 12  1  0
  4 13  1  0
  6 14  1  0
  6 15  1  0
  7 16  1  0
  7 17  1  0
  8 18  1  0
  8 19  1  0
M  END
