
     RDKit          3D

 19 18  0  0  0  0  0  0  0  0999 V2000
    2.7615    0.9235    1.5193 O   0  0  0  0  0  0  0  0  0  0  0  0
    2.0565    0.9219    0.5325 C   0  0  0  0  0  0  0  0  0  0  0  0
    1.6179   -0.3481   -0.0577 C   0  0  0  0  0  0  0  0  0  0  0  0
    2.2498   -1.4001    0.6534 O   0  0  0  0  0  0  0  0  0  0  0  0
    0.1448   -0.4936    0.0388 C   0  0  0  0  0  0  0  0  0  0  0  0
   -0.6948    0.5320   -0.6355 C   0  0  0  0  0  0  0  0  0  0  0  0
   -0.4655    1.8017   -0.1271 O   0  0  0  0  0  0  0  0  0  0  0  0
   -2.1496    0.2013   -0.2516 C   0  0  0  0  0  0  0  0  0  0  0  0
   -2.4559   -1.0778   -0.7358 O   0  0  0  0  0  0  0  0  0  0  0  0
    1.7657    1.8601    0.1051 H   0  0  0  0  0  0  0  0  0  0  0  0
    1.9969   -0.4524   -1.1111 H   0  0  0  0  0  0  0  0  0  0  0  0
    2.3675   -2.1959    0.1044 H   0  0  0  0  0  0  0  0  0  0  0  0
   -0.2131   -0.5432    1.1100 H   0  0  0  0  0  0  0  0  0  0  0  0
   -0.1424   -1.5089   -0.3696 H   0  0  0  0  0  0  0  0  0  0  0  0
   -0.5945    0.5238   -1.7437 H   0  0  0  0  0  0  0  0  0  0  0  0
   -0.9169    1.8567    0.7619 H   0  0  0  0  0  0  0  0  0  0  0  0
   -2.1471    0.2045    0.8666 H   0  0  0  0  0  0  0  0  0  0  0  0
   -2.8539    0.9050   -0.6873 H   0  0  0  0  0  0  0  0  0  0  0  0
   -2.3268   -1.7106    0.0274 H   0  0  0  0  0  0  0  0  0  0  0  0
  1  2  2  0
  2  3  1  0
  3  4  1  0
  3  5  1  0
  5  6  1  0
  6  7  1  0
  6  8  1  0
  8  9  1  0
  2 10  1  0
  3 11  1  0
  4 12  1  0
  5 13  1  0
  5 14  1  0
  6 15  1  0
  7 16  1  0
  8 17  1  0
  8 18  1  0
  9 19  1  0
M  END
