
     RDKit          3D

 17 18  0  0  0  0  0  0  0  0999 V2000
   -2.6943   -0.6355   -1.3162 O   0  0  0  0  0  0  0  0  0  0  0  0
   -1.5197   -0.5789   -0.9997 C   0  0  0  0  0  0  0  0  0  0  0  0
   -0.9602    0.7613   -0.6905 C   0  0  0  0  0  0  0  0  0  0  0  0
   -1.8922    1.7532   -0.8165 O   0  0  0  0  0  0  0  0  0  0  0  0
   -0.3611    0.6839    0.6959 C   0  0  0  0  0  0  0  0  0  0  0  0
    0.7500   -0.3617    0.7894 C   0  0  0  0  0  0  0  0  0  0  0  0
    1.8341   -0.3150   -0.2374 C   0  0  0  0  0  0  0  0  0  0  0  0
    2.0319    1.0255    0.0702 O   0  0  0  0  0  0  0  0  0  0  0  0
    1.0075    1.0952    0.9877 C   0  0  0  0  0  0  0  0  0  0  0  0
   -0.9158   -1.4758   -0.9486 H   0  0  0  0  0  0  0  0  0  0  0  0
   -0.1629    0.9500   -1.4544 H   0  0  0  0  0  0  0  0  0  0  0  0
   -2.2984    2.0032    0.0416 H   0  0  0  0  0  0  0  0  0  0  0  0
   -1.0684    0.6259    1.5233 H   0  0  0  0  0  0  0  0  0  0  0  0
    0.7607   -1.0622    1.6209 H   0  0  0  0  0  0  0  0  0  0  0  0
    1.5502   -0.5052   -1.2833 H   0  0  0  0  0  0  0  0  0  0  0  0
    2.7074   -0.9236    0.0392 H   0  0  0  0  0  0  0  0  0  0  0  0
    1.2312    1.5083    1.9786 H   0  0  0  0  0  0  0  0  0  0  0  0
  1  2  2  0
  2  3  1  0
  3  4  1  0
  3  5  1  0
  5  6  1  0
  6  7  1  0
  7  8  1  0
  8  9  1  0
  9  5  1  0
  9  6  1  0
  2 10  1  0
  3 11  1  0
  4 12  1  0
  5 13  1  0
  6 14  1  0
  7 15  1  0
  7 16  1  0
  9 17  1  0
M  END
