
     RDKit          3D

 15 15  0  0  0  0  0  0  0  0999 V2000
    2.4439   -1.9021    0.2222 O   0  0  0  0  0  0  0  0  0  0  0  0
    2.0729   -0.7658   -0.1657 C   0  0  0  0  0  0  0  0  0  0  0  0
    0.6648   -0.4412   -0.1150 C   0  0  0  0  0  0  0  0  0  0  0  0
   -0.3190   -1.2169    0.3034 C   0  0  0  0  0  0  0  0  0  0  0  0
   -1.6316   -0.5323    0.2049 C   0  0  0  0  0  0  0  0  0  0  0  0
   -1.2050    0.8756    0.1528 C   0  0  0  0  0  0  0  0  0  0  0  0
   -1.7902    1.8174    0.5938 O   0  0  0  0  0  0  0  0  0  0  0  0
    0.0832    0.8819   -0.5504 C   0  0  0  0  0  0  0  0  0  0  0  0
    0.9135    1.9339   -0.1893 O   0  0  0  0  0  0  0  0  0  0  0  0
    2.7997   -0.0478   -0.5301 H   0  0  0  0  0  0  0  0  0  0  0  0
   -0.1711   -2.2175    0.6670 H   0  0  0  0  0  0  0  0  0  0  0  0
   -2.2887   -0.7541    1.0681 H   0  0  0  0  0  0  0  0  0  0  0  0
   -2.2016   -0.8457   -0.6958 H   0  0  0  0  0  0  0  0  0  0  0  0
   -0.0096    0.9133   -1.6558 H   0  0  0  0  0  0  0  0  0  0  0  0
    0.6387    2.3012    0.6900 H   0  0  0  0  0  0  0  0  0  0  0  0
  1  2  2  0
  2  3  1  0
  3  4  2  0
  4  5  1  0
  5  6  1  0
  6  7  2  0
  6  8  1  0
  8  9  1  0
  8  3  1  0
  2 10  1  0
  4 11  1  0
  5 12  1  0
  5 13  1  0
  8 14  1  0
  9 15  1  0
M  END
