
     RDKit          3D

 19 20  0  0  0  0  0  0  0  0999 V2000
    3.0375    0.1429    1.3509 O   0  0  0  0  0  0  0  0  0  0  0  0
    2.2965   -0.4656    0.6130 C   0  0  0  0  0  0  0  0  0  0  0  0
    0.8516   -0.1936    0.6116 C   0  0  0  0  0  0  0  0  0  0  0  0
    0.0327   -1.4045    0.1643 C   0  0  0  0  0  0  0  0  0  0  0  0
   -0.9430   -0.7069   -0.7921 C   0  0  0  0  0  0  0  0  0  0  0  0
   -1.7450    0.3367   -0.0555 C   0  0  0  0  0  0  0  0  0  0  0  0
   -0.7895    1.5371   -0.1154 C   0  0  0  0  0  0  0  0  0  0  0  0
    0.5023    0.8044   -0.4784 C   0  0  0  0  0  0  0  0  0  0  0  0
    0.0078    0.0217   -1.5503 O   0  0  0  0  0  0  0  0  0  0  0  0
    2.6911   -1.2135   -0.0503 H   0  0  0  0  0  0  0  0  0  0  0  0
    0.4780    0.2057    1.5777 H   0  0  0  0  0  0  0  0  0  0  0  0
   -0.4755   -1.9018    0.9850 H   0  0  0  0  0  0  0  0  0  0  0  0
    0.6932   -2.0302   -0.4419 H   0  0  0  0  0  0  0  0  0  0  0  0
   -1.5211   -1.3950   -1.3856 H   0  0  0  0  0  0  0  0  0  0  0  0
   -1.8841    0.0486    1.0076 H   0  0  0  0  0  0  0  0  0  0  0  0
   -2.7066    0.5580   -0.5223 H   0  0  0  0  0  0  0  0  0  0  0  0
   -0.7272    2.0702    0.8274 H   0  0  0  0  0  0  0  0  0  0  0  0
   -1.1057    2.1280   -0.9843 H   0  0  0  0  0  0  0  0  0  0  0  0
    1.3072    1.4578   -0.7616 H   0  0  0  0  0  0  0  0  0  0  0  0
  1  2  2  0
  2  3  1  0
  3  4  1  0
  4  5  1  0
  5  6  1  0
  6  7  1  0
  7  8  1  0
  8  9  1  0
  8  3  1  0
  9  5  1  0
  2 10  1  0
  3 11  1  0
  4 12  1  0
  4 13  1  0
  5 14  1  0
  6 15  1  0
  6 16  1  0
  7 17  1  0
  7 18  1  0
  8 19  1  0
M  END
