
     RDKit          3D

 13 13  0  0  0  0  0  0  0  0999 V2000
    0.7853   -1.6455   -2.4350 O   0  0  0  0  0  0  0  0  0  0  0  0
   -0.2650   -2.2415   -2.1389 C   0  0  0  0  0  0  0  0  0  0  0  0
   -1.1175   -1.7601   -1.0735 C   0  0  0  0  0  0  0  0  0  0  0  0
   -2.1834   -2.3529   -0.7631 O   0  0  0  0  0  0  0  0  0  0  0  0
   -0.7824   -0.5706   -0.3134 C   0  0  0  0  0  0  0  0  0  0  0  0
   -0.4812    0.4220    0.3196 C   0  0  0  0  0  0  0  0  0  0  0  0
   -0.0949    1.6085    1.0864 C   0  0  0  0  0  0  0  0  0  0  0  0
    1.1850    1.6858    1.6632 C   0  0  0  0  0  0  0  0  0  0  0  0
    1.0387    2.2794    0.3540 O   0  0  0  0  0  0  0  0  0  0  0  0
   -0.5470   -3.1208   -2.6742 H   0  0  0  0  0  0  0  0  0  0  0  0
   -0.8571    2.3839    1.2762 H   0  0  0  0  0  0  0  0  0  0  0  0
    1.8900    0.8288    1.7240 H   0  0  0  0  0  0  0  0  0  0  0  0
    1.4294    2.4833    2.3997 H   0  0  0  0  0  0  0  0  0  0  0  0
  1  2  2  0
  2  3  1  0
  3  4  2  0
  3  5  1  0
  5  6  3  0
  6  7  1  0
  7  8  1  0
  8  9  1  0
  9  7  1  0
  2 10  1  0
  7 11  1  0
  8 12  1  0
  8 13  1  0
M  END
