
     RDKit          3D

 19 20  0  0  0  0  0  0  0  0999 V2000
    3.3656   -0.1410   -0.7880 O   0  0  0  0  0  0  0  0  0  0  0  0
    2.6450   -0.2699    0.1843 C   0  0  0  0  0  0  0  0  0  0  0  0
    1.2065   -0.5433   -0.0691 C   0  0  0  0  0  0  0  0  0  0  0  0
    0.6790    0.0187   -1.3556 C   0  0  0  0  0  0  0  0  0  0  0  0
   -0.1070    1.0225   -0.5556 C   0  0  0  0  0  0  0  0  0  0  0  0
   -1.0919    0.5656    0.4328 C   0  0  0  0  0  0  0  0  0  0  0  0
   -1.9687   -0.6436    0.1736 C   0  0  0  0  0  0  0  0  0  0  0  0
   -2.8067   -0.8515    1.2714 O   0  0  0  0  0  0  0  0  0  0  0  0
    0.3436    0.3846    0.7085 C   0  0  0  0  0  0  0  0  0  0  0  0
    3.1034   -0.1762    1.1593 H   0  0  0  0  0  0  0  0  0  0  0  0
    0.9159   -1.6198    0.0416 H   0  0  0  0  0  0  0  0  0  0  0  0
    1.4793    0.4580   -1.9769 H   0  0  0  0  0  0  0  0  0  0  0  0
    0.0535   -0.7071   -1.9400 H   0  0  0  0  0  0  0  0  0  0  0  0
    0.0789    2.1074   -0.7374 H   0  0  0  0  0  0  0  0  0  0  0  0
   -1.6025    1.3503    1.0182 H   0  0  0  0  0  0  0  0  0  0  0  0
   -1.3070   -1.4960    0.0055 H   0  0  0  0  0  0  0  0  0  0  0  0
   -2.5972   -0.4367   -0.7162 H   0  0  0  0  0  0  0  0  0  0  0  0
   -3.1915   -0.0289    1.6187 H   0  0  0  0  0  0  0  0  0  0  0  0
    0.8016    0.9599    1.5248 H   0  0  0  0  0  0  0  0  0  0  0  0
  1  2  2  0
  2  3  1  0
  3  4  1  0
  4  5  1  0
  5  6  1  0
  6  7  1  0
  7  8  1  0
  6  9  1  0
  9  3  1  0
  9  5  1  0
  2 10  1  0
  3 11  1  0
  4 12  1  0
  4 13  1  0
  5 14  1  0
  6 15  1  0
  7 16  1  0
  7 17  1  0
  8 18  1  0
  9 19  1  0
M  END
