
     RDKit          3D

 17 19  0  0  0  0  0  0  0  0999 V2000
    2.8976    0.2340    0.3567 O   0  0  0  0  0  0  0  0  0  0  0  0
    2.1332   -0.4567   -0.2971 C   0  0  0  0  0  0  0  0  0  0  0  0
    0.7261   -0.2947   -0.1696 C   0  0  0  0  0  0  0  0  0  0  0  0
    0.1922    1.1074   -0.4842 C   0  0  0  0  0  0  0  0  0  0  0  0
   -1.2966    0.7958   -0.2679 C   0  0  0  0  0  0  0  0  0  0  0  0
   -1.3080   -0.1358    0.8555 C   0  0  0  0  0  0  0  0  0  0  0  0
    0.1503   -0.4534    1.2280 C   0  0  0  0  0  0  0  0  0  0  0  0
   -1.3898   -0.6361   -0.5299 C   0  0  0  0  0  0  0  0  0  0  0  0
   -0.1014   -1.0812   -0.9132 O   0  0  0  0  0  0  0  0  0  0  0  0
    2.5851   -1.1915   -0.9721 H   0  0  0  0  0  0  0  0  0  0  0  0
    0.5856    1.7761    0.2852 H   0  0  0  0  0  0  0  0  0  0  0  0
    0.3948    1.3973   -1.5162 H   0  0  0  0  0  0  0  0  0  0  0  0
   -2.0345    1.5458   -0.4853 H   0  0  0  0  0  0  0  0  0  0  0  0
   -2.0837   -0.2320    1.5974 H   0  0  0  0  0  0  0  0  0  0  0  0
    0.5552    0.2705    1.9425 H   0  0  0  0  0  0  0  0  0  0  0  0
    0.2574   -1.5022    1.5369 H   0  0  0  0  0  0  0  0  0  0  0  0
   -2.2636   -1.1433   -0.9405 H   0  0  0  0  0  0  0  0  0  0  0  0
  1  2  2  0
  2  3  1  0
  3  4  1  0
  4  5  1  0
  5  6  1  0
  6  7  1  0
  6  8  1  0
  8  9  1  0
  7  3  1  0
  9  3  1  0
  8  5  1  0
  2 10  1  0
  4 11  1  0
  4 12  1  0
  5 13  1  0
  6 14  1  0
  7 15  1  0
  7 16  1  0
  8 17  1  0
M  END
