
     RDKit          3D

 21 21  0  0  0  0  0  0  0  0999 V2000
    0.4505    2.8528    0.2668 O   0  0  0  0  0  0  0  0  0  0  0  0
   -0.5205    2.1790    0.4796 C   0  0  0  0  0  0  0  0  0  0  0  0
   -0.4690    0.7116    0.6334 C   0  0  0  0  0  0  0  0  0  0  0  0
   -1.8061    0.1597    0.1118 C   0  0  0  0  0  0  0  0  0  0  0  0
   -1.4859   -1.3297    0.0866 C   0  0  0  0  0  0  0  0  0  0  0  0
   -0.0162   -1.4147   -0.2475 C   0  0  0  0  0  0  0  0  0  0  0  0
    0.4909    0.0296   -0.2742 C   0  0  0  0  0  0  0  0  0  0  0  0
    1.9105    0.0253    0.2113 C   0  0  0  0  0  0  0  0  0  0  0  0
    2.7094   -0.6385   -0.7190 O   0  0  0  0  0  0  0  0  0  0  0  0
   -1.4864    2.7023    0.5601 H   0  0  0  0  0  0  0  0  0  0  0  0
   -0.4112    0.3854    1.6850 H   0  0  0  0  0  0  0  0  0  0  0  0
   -1.9361    0.4871   -0.9333 H   0  0  0  0  0  0  0  0  0  0  0  0
   -2.6280    0.4106    0.7815 H   0  0  0  0  0  0  0  0  0  0  0  0
   -1.6596   -1.7085    1.1269 H   0  0  0  0  0  0  0  0  0  0  0  0
   -2.1303   -1.8961   -0.5857 H   0  0  0  0  0  0  0  0  0  0  0  0
    0.1682   -1.8648   -1.2358 H   0  0  0  0  0  0  0  0  0  0  0  0
    0.5335   -1.9303    0.5786 H   0  0  0  0  0  0  0  0  0  0  0  0
    0.4318    0.4683   -1.2713 H   0  0  0  0  0  0  0  0  0  0  0  0
    2.3367    1.0116    0.3754 H   0  0  0  0  0  0  0  0  0  0  0  0
    1.9907   -0.5389    1.1786 H   0  0  0  0  0  0  0  0  0  0  0  0
    3.5272   -0.1019   -0.9567 H   0  0  0  0  0  0  0  0  0  0  0  0
  1  2  2  0
  2  3  1  0
  3  4  1  0
  4  5  1  0
  5  6  1  0
  6  7  1  0
  7  8  1  0
  8  9  1  0
  7  3  1  0
  2 10  1  0
  3 11  1  0
  4 12  1  0
  4 13  1  0
  5 14  1  0
  5 15  1  0
  6 16  1  0
  6 17  1  0
  7 18  1  0
  8 19  1  0
  8 20  1  0
  9 21  1  0
M  END
