
     RDKit          3D

 17 17  0  0  0  0  0  0  0  0999 V2000
   -2.2181   -0.1452    1.2979 O   0  0  0  0  0  0  0  0  0  0  0  0
   -2.5517   -0.3590    0.1479 C   0  0  0  0  0  0  0  0  0  0  0  0
   -1.6798    0.1121   -0.9534 C   0  0  0  0  0  0  0  0  0  0  0  0
   -0.4600    0.8148   -0.3913 C   0  0  0  0  0  0  0  0  0  0  0  0
    0.3522   -0.1058    0.4875 C   0  0  0  0  0  0  0  0  0  0  0  0
    0.8878   -1.2599   -0.0126 O   0  0  0  0  0  0  0  0  0  0  0  0
    1.8004   -0.1883    0.1796 C   0  0  0  0  0  0  0  0  0  0  0  0
    2.8057   -0.3134    1.2416 C   0  0  0  0  0  0  0  0  0  0  0  0
    3.9412    0.0932    1.0669 O   0  0  0  0  0  0  0  0  0  0  0  0
   -3.4796   -0.8890   -0.0161 H   0  0  0  0  0  0  0  0  0  0  0  0
   -1.3679   -0.7895   -1.5206 H   0  0  0  0  0  0  0  0  0  0  0  0
   -2.2892    0.7995   -1.5723 H   0  0  0  0  0  0  0  0  0  0  0  0
   -0.7779    1.6649    0.2634 H   0  0  0  0  0  0  0  0  0  0  0  0
    0.1758    1.1874   -1.2112 H   0  0  0  0  0  0  0  0  0  0  0  0
    0.1019   -0.1488    1.5740 H   0  0  0  0  0  0  0  0  0  0  0  0
    2.1562    0.2908   -0.7575 H   0  0  0  0  0  0  0  0  0  0  0  0
    2.6031   -0.7638    2.2208 H   0  0  0  0  0  0  0  0  0  0  0  0
  1  2  2  0
  2  3  1  0
  3  4  1  0
  4  5  1  0
  5  6  1  0
  6  7  1  0
  7  8  1  0
  8  9  2  0
  7  5  1  0
  2 10  1  0
  3 11  1  0
  3 12  1  0
  4 13  1  0
  4 14  1  0
  5 15  1  0
  7 16  1  0
  8 17  1  0
M  END
