
     RDKit          3D

 15 16  0  0  0  0  0  0  0  0999 V2000
   -2.4193    1.0773   -1.1019 O   0  0  0  0  0  0  0  0  0  0  0  0
   -1.6126    1.0723   -0.1660 C   0  0  0  0  0  0  0  0  0  0  0  0
   -0.3616    0.4114   -0.1999 C   0  0  0  0  0  0  0  0  0  0  0  0
    0.8859    1.1937    0.1582 C   0  0  0  0  0  0  0  0  0  0  0  0
    1.8169    0.2467    0.0007 C   0  0  0  0  0  0  0  0  0  0  0  0
    0.9696   -0.9033   -0.4438 C   0  0  0  0  0  0  0  0  0  0  0  0
    0.0539   -0.2886   -1.3041 O   0  0  0  0  0  0  0  0  0  0  0  0
   -0.1368   -0.8515    0.5937 C   0  0  0  0  0  0  0  0  0  0  0  0
   -1.0857   -1.8230    0.5016 O   0  0  0  0  0  0  0  0  0  0  0  0
   -1.9312    1.6228    0.7116 H   0  0  0  0  0  0  0  0  0  0  0  0
    0.9704    2.2311    0.4556 H   0  0  0  0  0  0  0  0  0  0  0  0
    2.8869    0.2510    0.1391 H   0  0  0  0  0  0  0  0  0  0  0  0
    1.4120   -1.8202   -0.6997 H   0  0  0  0  0  0  0  0  0  0  0  0
    0.2685   -0.6566    1.5803 H   0  0  0  0  0  0  0  0  0  0  0  0
   -1.7168   -1.7632   -0.2253 H   0  0  0  0  0  0  0  0  0  0  0  0
  1  2  2  0
  2  3  1  0
  3  4  1  0
  4  5  2  0
  5  6  1  0
  6  7  1  0
  6  8  1  0
  8  9  1  0
  7  3  1  0
  8  3  1  0
  2 10  1  0
  4 11  1  0
  5 12  1  0
  6 13  1  0
  8 14  1  0
  9 15  1  0
M  END
