
     RDKit          3D

 17 18  0  0  0  0  0  0  0  0999 V2000
    2.9407    0.1759   -0.3539 O   0  0  0  0  0  0  0  0  0  0  0  0
    2.1555   -0.7579   -0.4079 C   0  0  0  0  0  0  0  0  0  0  0  0
    0.7377   -0.4709   -0.1932 C   0  0  0  0  0  0  0  0  0  0  0  0
    0.4627    0.3542    1.0455 C   0  0  0  0  0  0  0  0  0  0  0  0
   -0.6876    1.2399    0.5436 C   0  0  0  0  0  0  0  0  0  0  0  0
   -1.0352    0.5159   -0.7272 C   0  0  0  0  0  0  0  0  0  0  0  0
   -1.3733   -0.9181   -0.3916 C   0  0  0  0  0  0  0  0  0  0  0  0
   -0.1081   -1.5405   -0.2614 O   0  0  0  0  0  0  0  0  0  0  0  0
    0.2614    0.3264   -1.2660 O   0  0  0  0  0  0  0  0  0  0  0  0
    2.5841   -1.7316   -0.6132 H   0  0  0  0  0  0  0  0  0  0  0  0
    0.0631   -0.3457    1.8222 H   0  0  0  0  0  0  0  0  0  0  0  0
    1.3134    0.9432    1.3841 H   0  0  0  0  0  0  0  0  0  0  0  0
   -1.4994    1.3082    1.2663 H   0  0  0  0  0  0  0  0  0  0  0  0
   -0.2121    2.2194    0.2962 H   0  0  0  0  0  0  0  0  0  0  0  0
   -1.7134    1.0123   -1.3880 H   0  0  0  0  0  0  0  0  0  0  0  0
   -1.9229   -1.3366   -1.2732 H   0  0  0  0  0  0  0  0  0  0  0  0
   -1.9667   -0.9940    0.5179 H   0  0  0  0  0  0  0  0  0  0  0  0
  1  2  2  0
  2  3  1  0
  3  4  1  0
  4  5  1  0
  5  6  1  0
  6  7  1  0
  7  8  1  0
  6  9  1  0
  8  3  1  0
  9  3  1  0
  2 10  1  0
  4 11  1  0
  4 12  1  0
  5 13  1  0
  5 14  1  0
  6 15  1  0
  7 16  1  0
  7 17  1  0
M  END
