
     RDKit          3D

 17 18  0  0  0  0  0  0  0  0999 V2000
   -0.1053    2.7012   -0.5797 O   0  0  0  0  0  0  0  0  0  0  0  0
   -0.5870    1.6013   -0.7201 C   0  0  0  0  0  0  0  0  0  0  0  0
   -0.1659    0.4976    0.1409 C   0  0  0  0  0  0  0  0  0  0  0  0
   -1.3590   -0.2742    0.6545 C   0  0  0  0  0  0  0  0  0  0  0  0
   -0.8053   -1.5104    0.0023 C   0  0  0  0  0  0  0  0  0  0  0  0
    0.3740   -0.7244   -0.5503 C   0  0  0  0  0  0  0  0  0  0  0  0
    1.5750   -0.9676    0.1393 O   0  0  0  0  0  0  0  0  0  0  0  0
    1.9640    0.3591    0.4356 C   0  0  0  0  0  0  0  0  0  0  0  0
    0.7927    0.8008    1.0943 O   0  0  0  0  0  0  0  0  0  0  0  0
   -1.3269    1.4440   -1.4834 H   0  0  0  0  0  0  0  0  0  0  0  0
   -1.4508   -0.3197    1.7618 H   0  0  0  0  0  0  0  0  0  0  0  0
   -2.3385    0.0786    0.2468 H   0  0  0  0  0  0  0  0  0  0  0  0
   -1.4555   -1.9585   -0.7647 H   0  0  0  0  0  0  0  0  0  0  0  0
   -0.4789   -2.3050    0.7290 H   0  0  0  0  0  0  0  0  0  0  0  0
    0.4499   -0.6925   -1.6368 H   0  0  0  0  0  0  0  0  0  0  0  0
    2.0729    0.8646   -0.5445 H   0  0  0  0  0  0  0  0  0  0  0  0
    2.8446    0.4049    1.0750 H   0  0  0  0  0  0  0  0  0  0  0  0
  1  2  2  0
  2  3  1  0
  3  4  1  0
  4  5  1  0
  5  6  1  0
  6  7  1  0
  7  8  1  0
  8  9  1  0
  6  3  1  0
  9  3  1  0
  2 10  1  0
  4 11  1  0
  4 12  1  0
  5 13  1  0
  5 14  1  0
  6 15  1  0
  8 16  1  0
  8 17  1  0
M  END
