
     RDKit          3D

 15 16  0  0  0  0  0  0  0  0999 V2000
   -2.8253   -0.9717   -1.0234 O   0  0  0  0  0  0  0  0  0  0  0  0
   -2.2949   -0.4667   -0.0074 C   0  0  0  0  0  0  0  0  0  0  0  0
   -0.9399    0.0674   -0.0686 C   0  0  0  0  0  0  0  0  0  0  0  0
   -0.1516    0.0825   -1.1433 C   0  0  0  0  0  0  0  0  0  0  0  0
    1.1479    0.6068   -0.6166 C   0  0  0  0  0  0  0  0  0  0  0  0
    1.6639   -0.3969    0.3615 C   0  0  0  0  0  0  0  0  0  0  0  0
    0.8480   -0.1701    1.4810 O   0  0  0  0  0  0  0  0  0  0  0  0
   -0.1559    0.6956    1.0179 C   0  0  0  0  0  0  0  0  0  0  0  0
    0.6439    1.5959    0.2661 O   0  0  0  0  0  0  0  0  0  0  0  0
   -2.8696   -0.4450    0.8911 H   0  0  0  0  0  0  0  0  0  0  0  0
   -0.4002   -0.2136   -2.1454 H   0  0  0  0  0  0  0  0  0  0  0  0
    1.8243    0.9769   -1.3549 H   0  0  0  0  0  0  0  0  0  0  0  0
    1.4952   -1.4217   -0.0534 H   0  0  0  0  0  0  0  0  0  0  0  0
    2.7373   -0.2848    0.6032 H   0  0  0  0  0  0  0  0  0  0  0  0
   -0.7234    1.1709    1.7922 H   0  0  0  0  0  0  0  0  0  0  0  0
  1  2  2  0
  2  3  1  0
  3  4  2  0
  4  5  1  0
  5  6  1  0
  6  7  1  0
  7  8  1  0
  8  9  1  0
  8  3  1  0
  9  5  1  0
  2 10  1  0
  4 11  1  0
  5 12  1  0
  6 13  1  0
  6 14  1  0
  8 15  1  0
M  END
