
     RDKit          3D

 16 17  0  0  0  0  0  0  0  0999 V2000
   -2.4064   -1.9123    0.3619 O   0  0  0  0  0  0  0  0  0  0  0  0
   -1.4101   -1.2860    0.6832 C   0  0  0  0  0  0  0  0  0  0  0  0
   -0.5670   -0.4926   -0.2144 C   0  0  0  0  0  0  0  0  0  0  0  0
    0.7484   -1.0365   -0.5719 C   0  0  0  0  0  0  0  0  0  0  0  0
    1.7218   -0.2140   -0.2182 C   0  0  0  0  0  0  0  0  0  0  0  0
    1.1606    0.9946    0.4273 C   0  0  0  0  0  0  0  0  0  0  0  0
   -0.3202    0.9243    0.3093 C   0  0  0  0  0  0  0  0  0  0  0  0
   -1.0304    0.6902   -0.9508 C   0  0  0  0  0  0  0  0  0  0  0  0
   -1.1342   -1.3287    1.7324 H   0  0  0  0  0  0  0  0  0  0  0  0
    0.9073   -1.9850   -1.0609 H   0  0  0  0  0  0  0  0  0  0  0  0
    2.7693   -0.4176   -0.3871 H   0  0  0  0  0  0  0  0  0  0  0  0
    1.6167    1.9334    0.0939 H   0  0  0  0  0  0  0  0  0  0  0  0
    1.4151    0.9038    1.5246 H   0  0  0  0  0  0  0  0  0  0  0  0
   -0.8944    1.2956    1.1547 H   0  0  0  0  0  0  0  0  0  0  0  0
   -2.0973    0.9844   -1.0038 H   0  0  0  0  0  0  0  0  0  0  0  0
   -0.4791    0.9466   -1.8802 H   0  0  0  0  0  0  0  0  0  0  0  0
  1  2  2  0
  2  3  1  0
  3  4  1  0
  4  5  2  0
  5  6  1  0
  6  7  1  0
  7  8  1  0
  7  3  1  0
  8  3  1  0
  2  9  1  0
  4 10  1  0
  5 11  1  0
  6 12  1  0
  6 13  1  0
  7 14  1  0
  8 15  1  0
  8 16  1  0
M  END
