
     RDKit          3D

 19 19  0  0  0  0  0  0  0  0999 V2000
    2.9808   -0.4833   -1.2839 O   0  0  0  0  0  0  0  0  0  0  0  0
    2.5530    0.0938   -0.3054 C   0  0  0  0  0  0  0  0  0  0  0  0
    1.0683    0.0277   -0.0231 C   0  0  0  0  0  0  0  0  0  0  0  0
    0.5500    1.4341   -0.1420 C   0  0  0  0  0  0  0  0  0  0  0  0
   -0.7843    1.5760    0.0591 O   0  0  0  0  0  0  0  0  0  0  0  0
   -1.4123    0.5947    0.7686 C   0  0  0  0  0  0  0  0  0  0  0  0
   -1.7855   -0.6133   -0.0558 C   0  0  0  0  0  0  0  0  0  0  0  0
   -0.5818   -1.4480   -0.4206 C   0  0  0  0  0  0  0  0  0  0  0  0
    0.4334   -0.7320   -1.0033 O   0  0  0  0  0  0  0  0  0  0  0  0
    3.2238    0.6305    0.3301 H   0  0  0  0  0  0  0  0  0  0  0  0
    0.9847   -0.3916    0.9847 H   0  0  0  0  0  0  0  0  0  0  0  0
    0.7825    1.7716   -1.1883 H   0  0  0  0  0  0  0  0  0  0  0  0
    1.1793    2.0862    0.5100 H   0  0  0  0  0  0  0  0  0  0  0  0
   -0.8633    0.2580    1.6698 H   0  0  0  0  0  0  0  0  0  0  0  0
   -2.3758    1.0204    1.1509 H   0  0  0  0  0  0  0  0  0  0  0  0
   -2.3570   -0.3557   -0.9454 H   0  0  0  0  0  0  0  0  0  0  0  0
   -2.4323   -1.2534    0.5938 H   0  0  0  0  0  0  0  0  0  0  0  0
   -0.2287   -2.0117    0.4661 H   0  0  0  0  0  0  0  0  0  0  0  0
   -0.9346   -2.2040   -1.1653 H   0  0  0  0  0  0  0  0  0  0  0  0
  1  2  2  0
  2  3  1  0
  3  4  1  0
  4  5  1  0
  5  6  1  0
  6  7  1  0
  7  8  1  0
  8  9  1  0
  9  3  1  0
  2 10  1  0
  3 11  1  0
  4 12  1  0
  4 13  1  0
  6 14  1  0
  6 15  1  0
  7 16  1  0
  7 17  1  0
  8 18  1  0
  8 19  1  0
M  END
