
     RDKit          3D

 15 15  0  0  0  0  0  0  0  0999 V2000
    1.4093    1.7596    0.4218 O   0  0  0  0  0  0  0  0  0  0  0  0
    1.7627    0.6484    0.8659 C   0  0  0  0  0  0  0  0  0  0  0  0
    1.1462   -0.6204    0.6996 C   0  0  0  0  0  0  0  0  0  0  0  0
    1.7158   -1.6828    1.1723 O   0  0  0  0  0  0  0  0  0  0  0  0
   -0.1568   -0.7295   -0.0274 C   0  0  0  0  0  0  0  0  0  0  0  0
   -1.3770    0.0041    0.4635 C   0  0  0  0  0  0  0  0  0  0  0  0
   -1.9374    0.7235   -0.5798 O   0  0  0  0  0  0  0  0  0  0  0  0
    0.1575   -0.3539   -1.5204 C   0  0  0  0  0  0  0  0  0  0  0  0
   -0.3453   -1.6302   -1.0040 O   0  0  0  0  0  0  0  0  0  0  0  0
    2.6981    0.6887    1.4878 H   0  0  0  0  0  0  0  0  0  0  0  0
   -2.0972   -0.8557    0.7588 H   0  0  0  0  0  0  0  0  0  0  0  0
   -1.1916    0.6187    1.3585 H   0  0  0  0  0  0  0  0  0  0  0  0
   -2.3949    1.5220   -0.2971 H   0  0  0  0  0  0  0  0  0  0  0  0
   -0.5686    0.3110   -1.9727 H   0  0  0  0  0  0  0  0  0  0  0  0
    1.1790   -0.4036   -1.8270 H   0  0  0  0  0  0  0  0  0  0  0  0
  1  2  2  0
  2  3  1  0
  3  4  2  0
  3  5  1  0
  5  6  1  0
  6  7  1  0
  5  8  1  0
  8  9  1  0
  9  5  1  0
  2 10  1  0
  6 11  1  0
  6 12  1  0
  7 13  1  0
  8 14  1  0
  8 15  1  0
M  END
