
     RDKit          3D

 15 15  0  0  0  0  0  0  0  0999 V2000
    3.6399   -1.4195   -1.9490 O   0  0  0  0  0  0  0  0  0  0  0  0
    3.3090   -0.5387   -1.1182 C   0  0  0  0  0  0  0  0  0  0  0  0
    1.9209   -0.3566   -0.7208 C   0  0  0  0  0  0  0  0  0  0  0  0
    0.7639   -0.2107   -0.4109 C   0  0  0  0  0  0  0  0  0  0  0  0
   -0.6419   -0.0343   -0.0078 C   0  0  0  0  0  0  0  0  0  0  0  0
   -0.8188    1.1533    0.9323 C   0  0  0  0  0  0  0  0  0  0  0  0
   -2.0289    1.1214    1.5936 O   0  0  0  0  0  0  0  0  0  0  0  0
   -1.5223   -1.1227    0.0651 C   0  0  0  0  0  0  0  0  0  0  0  0
   -1.5940   -0.1790   -1.0473 O   0  0  0  0  0  0  0  0  0  0  0  0
    4.0742    0.1087   -0.6801 H   0  0  0  0  0  0  0  0  0  0  0  0
    0.0255    1.0830    1.6587 H   0  0  0  0  0  0  0  0  0  0  0  0
   -0.6988    2.0956    0.3728 H   0  0  0  0  0  0  0  0  0  0  0  0
   -2.7080    1.4735    0.9638 H   0  0  0  0  0  0  0  0  0  0  0  0
   -1.2315   -2.1410   -0.1995 H   0  0  0  0  0  0  0  0  0  0  0  0
   -2.4892   -1.0329    0.6298 H   0  0  0  0  0  0  0  0  0  0  0  0
  1  2  2  0
  2  3  1  0
  3  4  3  0
  4  5  1  0
  5  6  1  0
  6  7  1  0
  5  8  1  0
  8  9  1  0
  9  5  1  0
  2 10  1  0
  6 11  1  0
  6 12  1  0
  7 13  1  0
  8 14  1  0
  8 15  1  0
M  END
