
     RDKit          3D

 19 20  0  0  0  0  0  0  0  0999 V2000
    3.7266    0.3182   -0.0226 O   0  0  0  0  0  0  0  0  0  0  0  0
    2.6106   -0.0636   -0.3385 C   0  0  0  0  0  0  0  0  0  0  0  0
    1.5405   -0.3290    0.6590 C   0  0  0  0  0  0  0  0  0  0  0  0
    0.2787   -0.7879   -0.0463 C   0  0  0  0  0  0  0  0  0  0  0  0
   -0.8741   -1.0858    0.8722 C   0  0  0  0  0  0  0  0  0  0  0  0
   -1.5914    0.1285    0.3645 C   0  0  0  0  0  0  0  0  0  0  0  0
   -2.9030    0.0987   -0.0080 O   0  0  0  0  0  0  0  0  0  0  0  0
   -0.8231    1.4526    0.3683 C   0  0  0  0  0  0  0  0  0  0  0  0
   -0.4781    0.3912   -0.5740 C   0  0  0  0  0  0  0  0  0  0  0  0
    2.3756   -0.2199   -1.3838 H   0  0  0  0  0  0  0  0  0  0  0  0
    1.9116   -1.1871    1.2956 H   0  0  0  0  0  0  0  0  0  0  0  0
    1.3658    0.5303    1.3099 H   0  0  0  0  0  0  0  0  0  0  0  0
    0.4767   -1.5772   -0.8147 H   0  0  0  0  0  0  0  0  0  0  0  0
   -0.6445   -1.1110    1.9517 H   0  0  0  0  0  0  0  0  0  0  0  0
   -1.3765   -2.0249    0.5585 H   0  0  0  0  0  0  0  0  0  0  0  0
   -3.2222    0.9925   -0.2011 H   0  0  0  0  0  0  0  0  0  0  0  0
   -0.3364    1.6404    1.3238 H   0  0  0  0  0  0  0  0  0  0  0  0
   -1.4092    2.3079   -0.0234 H   0  0  0  0  0  0  0  0  0  0  0  0
   -0.6275    0.5260   -1.6586 H   0  0  0  0  0  0  0  0  0  0  0  0
  1  2  2  0
  2  3  1  0
  3  4  1  0
  4  5  1  0
  5  6  1  0
  6  7  1  0
  6  8  1  0
  8  9  1  0
  9  4  1  0
  9  6  1  0
  2 10  1  0
  3 11  1  0
  3 12  1  0
  4 13  1  0
  5 14  1  0
  5 15  1  0
  7 16  1  0
  8 17  1  0
  8 18  1  0
  9 19  1  0
M  END
