
     RDKit          3D

 17 17  0  0  0  0  0  0  0  0999 V2000
   -2.0773    0.9304   -0.7971 O   0  0  0  0  0  0  0  0  0  0  0  0
   -1.7894    1.0449    0.3812 C   0  0  0  0  0  0  0  0  0  0  0  0
   -0.5585    0.4432    0.9822 C   0  0  0  0  0  0  0  0  0  0  0  0
    0.1714   -0.2706   -0.1150 C   0  0  0  0  0  0  0  0  0  0  0  0
    0.5933    0.4999   -1.2172 O   0  0  0  0  0  0  0  0  0  0  0  0
    1.4635    1.5510   -1.0214 C   0  0  0  0  0  0  0  0  0  0  0  0
    1.8577    1.7924    0.1449 O   0  0  0  0  0  0  0  0  0  0  0  0
   -0.3817   -1.6796   -0.4261 C   0  0  0  0  0  0  0  0  0  0  0  0
    0.9700   -1.4902    0.1563 C   0  0  0  0  0  0  0  0  0  0  0  0
   -2.4259    1.6006    1.0653 H   0  0  0  0  0  0  0  0  0  0  0  0
   -0.9322   -0.3421    1.6949 H   0  0  0  0  0  0  0  0  0  0  0  0
    0.0580    1.1948    1.5114 H   0  0  0  0  0  0  0  0  0  0  0  0
    1.7775    2.1312   -1.8728 H   0  0  0  0  0  0  0  0  0  0  0  0
   -0.5448   -1.8857   -1.4856 H   0  0  0  0  0  0  0  0  0  0  0  0
   -1.1535   -2.0802    0.2504 H   0  0  0  0  0  0  0  0  0  0  0  0
    1.1162   -1.7374    1.2173 H   0  0  0  0  0  0  0  0  0  0  0  0
    1.8557   -1.7026   -0.4688 H   0  0  0  0  0  0  0  0  0  0  0  0
  1  2  2  0
  2  3  1  0
  3  4  1  0
  4  5  1  0
  5  6  1  0
  6  7  2  0
  4  8  1  0
  8  9  1  0
  9  4  1  0
  2 10  1  0
  3 11  1  0
  3 12  1  0
  6 13  1  0
  8 14  1  0
  8 15  1  0
  9 16  1  0
  9 17  1  0
M  END
