
     RDKit          3D

 16 16  0  0  0  0  0  0  0  0999 V2000
   -2.7394    1.4413    0.9022 O   0  0  0  0  0  0  0  0  0  0  0  0
   -1.6920    1.1785    0.3517 C   0  0  0  0  0  0  0  0  0  0  0  0
   -1.2153   -0.2060    0.3335 C   0  0  0  0  0  0  0  0  0  0  0  0
   -0.7297   -0.6617   -1.0663 C   0  0  0  0  0  0  0  0  0  0  0  0
    0.2070   -0.5520    0.1111 C   0  0  0  0  0  0  0  0  0  0  0  0
    0.6679   -1.7112    0.7312 O   0  0  0  0  0  0  0  0  0  0  0  0
    1.2610    0.5143   -0.0443 C   0  0  0  0  0  0  0  0  0  0  0  0
    2.3290    0.0206   -0.8273 O   0  0  0  0  0  0  0  0  0  0  0  0
   -1.1372    1.9761   -0.1121 H   0  0  0  0  0  0  0  0  0  0  0  0
   -1.8390   -0.9635    0.8293 H   0  0  0  0  0  0  0  0  0  0  0  0
   -0.9396   -1.7017   -1.3644 H   0  0  0  0  0  0  0  0  0  0  0  0
   -0.6840    0.0771   -1.8644 H   0  0  0  0  0  0  0  0  0  0  0  0
    0.9188   -2.3423    0.0064 H   0  0  0  0  0  0  0  0  0  0  0  0
    0.8635    1.4107   -0.5476 H   0  0  0  0  0  0  0  0  0  0  0  0
    1.6635    0.8460    0.9383 H   0  0  0  0  0  0  0  0  0  0  0  0
    3.0655    0.6739   -0.8263 H   0  0  0  0  0  0  0  0  0  0  0  0
  1  2  2  0
  2  3  1  0
  3  4  1  0
  4  5  1  0
  5  6  1  0
  5  7  1  0
  7  8  1  0
  5  3  1  0
  2  9  1  0
  3 10  1  0
  4 11  1  0
  4 12  1  0
  6 13  1  0
  7 14  1  0
  7 15  1  0
  8 16  1  0
M  END
