
     RDKit          3D

 19 21  0  0  0  0  0  0  0  0999 V2000
    2.8477    0.9931    0.2550 O   0  0  0  0  0  0  0  0  0  0  0  0
    2.2508   -0.0117   -0.1594 C   0  0  0  0  0  0  0  0  0  0  0  0
    0.8218   -0.0910    0.0252 C   0  0  0  0  0  0  0  0  0  0  0  0
   -0.1711   -0.3560   -1.0257 C   0  0  0  0  0  0  0  0  0  0  0  0
   -1.1660    0.7935   -0.8563 C   0  0  0  0  0  0  0  0  0  0  0  0
   -0.9457    1.3275    0.5381 C   0  0  0  0  0  0  0  0  0  0  0  0
    0.0938    0.4384    1.1853 C   0  0  0  0  0  0  0  0  0  0  0  0
    0.1336   -1.0044    0.9481 C   0  0  0  0  0  0  0  0  0  0  0  0
   -0.6605   -1.5587   -0.2150 C   0  0  0  0  0  0  0  0  0  0  0  0
    2.8909   -0.7507   -0.6337 H   0  0  0  0  0  0  0  0  0  0  0  0
    0.1404   -0.5665   -2.0408 H   0  0  0  0  0  0  0  0  0  0  0  0
   -2.2030    0.4015   -0.8880 H   0  0  0  0  0  0  0  0  0  0  0  0
   -1.0441    1.5402   -1.6444 H   0  0  0  0  0  0  0  0  0  0  0  0
   -0.4492    2.3311    0.4069 H   0  0  0  0  0  0  0  0  0  0  0  0
   -1.8543    1.4317    1.1249 H   0  0  0  0  0  0  0  0  0  0  0  0
    0.7077    0.8765    1.9888 H   0  0  0  0  0  0  0  0  0  0  0  0
    0.6321   -1.6593    1.6549 H   0  0  0  0  0  0  0  0  0  0  0  0
   -1.7439   -1.6032   -0.0636 H   0  0  0  0  0  0  0  0  0  0  0  0
   -0.2808   -2.5320   -0.6001 H   0  0  0  0  0  0  0  0  0  0  0  0
  1  2  2  0
  2  3  1  0
  3  4  1  0
  4  5  1  0
  5  6  1  0
  6  7  1  0
  7  8  1  0
  8  9  1  0
  7  3  1  0
  8  3  1  0
  9  4  1  0
  2 10  1  0
  4 11  1  0
  5 12  1  0
  5 13  1  0
  6 14  1  0
  6 15  1  0
  7 16  1  0
  8 17  1  0
  9 18  1  0
  9 19  1  0
M  END
