
     RDKit          3D

 19 21  0  0  0  0  0  0  0  0999 V2000
    3.4060    0.8758   -0.3893 O   0  0  0  0  0  0  0  0  0  0  0  0
    2.5853    0.0394    0.0216 C   0  0  0  0  0  0  0  0  0  0  0  0
    1.2029    0.4388    0.1315 C   0  0  0  0  0  0  0  0  0  0  0  0
    0.3058   -0.3434    1.0545 C   0  0  0  0  0  0  0  0  0  0  0  0
    0.3757   -1.4519    0.0266 C   0  0  0  0  0  0  0  0  0  0  0  0
    0.1976   -0.1934   -0.7905 C   0  0  0  0  0  0  0  0  0  0  0  0
   -0.7894    0.1813    0.2367 C   0  0  0  0  0  0  0  0  0  0  0  0
   -1.5518    1.3683    0.3699 C   0  0  0  0  0  0  0  0  0  0  0  0
   -2.1820   -0.0647    0.2900 C   0  0  0  0  0  0  0  0  0  0  0  0
    3.0195   -0.9241    0.2568 H   0  0  0  0  0  0  0  0  0  0  0  0
    1.0405    1.5067    0.2452 H   0  0  0  0  0  0  0  0  0  0  0  0
    0.4081   -0.4497    2.0447 H   0  0  0  0  0  0  0  0  0  0  0  0
    1.3093   -1.9845   -0.0701 H   0  0  0  0  0  0  0  0  0  0  0  0
   -0.5578   -2.0435    0.0519 H   0  0  0  0  0  0  0  0  0  0  0  0
    0.1627   -0.1297   -1.7881 H   0  0  0  0  0  0  0  0  0  0  0  0
   -1.7978    2.0097   -0.5213 H   0  0  0  0  0  0  0  0  0  0  0  0
   -1.6956    1.8633    1.3534 H   0  0  0  0  0  0  0  0  0  0  0  0
   -2.6603   -0.4251    1.2226 H   0  0  0  0  0  0  0  0  0  0  0  0
   -2.7786   -0.2735   -0.6138 H   0  0  0  0  0  0  0  0  0  0  0  0
  1  2  2  0
  2  3  1  0
  3  4  1  0
  4  5  1  0
  5  6  1  0
  6  7  1  0
  7  8  1  0
  8  9  1  0
  6  3  1  0
  9  7  1  0
  7  4  1  0
  2 10  1  0
  3 11  1  0
  4 12  1  0
  5 13  1  0
  5 14  1  0
  6 15  1  0
  8 16  1  0
  8 17  1  0
  9 18  1  0
  9 19  1  0
M  END
