
     RDKit          3D

 17 17  0  0  0  0  0  0  0  0999 V2000
    0.9198    1.3986   -1.6160 O   0  0  0  0  0  0  0  0  0  0  0  0
    1.4856    0.9889   -0.6368 C   0  0  0  0  0  0  0  0  0  0  0  0
    1.1904   -0.3600   -0.1259 C   0  0  0  0  0  0  0  0  0  0  0  0
    1.9362   -0.6729    1.0155 O   0  0  0  0  0  0  0  0  0  0  0  0
   -0.2860   -0.5197    0.1201 C   0  0  0  0  0  0  0  0  0  0  0  0
   -1.0651    0.5616    0.8102 C   0  0  0  0  0  0  0  0  0  0  0  0
   -0.6704    1.8377    0.4383 O   0  0  0  0  0  0  0  0  0  0  0  0
   -1.0248   -1.4533   -0.8142 C   0  0  0  0  0  0  0  0  0  0  0  0
   -0.6738   -1.8095    0.4860 O   0  0  0  0  0  0  0  0  0  0  0  0
    2.2017    1.6057   -0.1399 H   0  0  0  0  0  0  0  0  0  0  0  0
    1.5132   -1.0857   -0.9059 H   0  0  0  0  0  0  0  0  0  0  0  0
    1.4610   -0.4494    1.8373 H   0  0  0  0  0  0  0  0  0  0  0  0
   -2.1298    0.4550    0.5006 H   0  0  0  0  0  0  0  0  0  0  0  0
   -0.9754    0.3862    1.9039 H   0  0  0  0  0  0  0  0  0  0  0  0
   -1.2921    2.2502   -0.2210 H   0  0  0  0  0  0  0  0  0  0  0  0
   -2.0880   -1.1807   -1.0242 H   0  0  0  0  0  0  0  0  0  0  0  0
   -0.5027   -1.9526   -1.6281 H   0  0  0  0  0  0  0  0  0  0  0  0
  1  2  2  0
  2  3  1  0
  3  4  1  0
  3  5  1  0
  5  6  1  0
  6  7  1  0
  5  8  1  0
  8  9  1  0
  9  5  1  0
  2 10  1  0
  3 11  1  0
  4 12  1  0
  6 13  1  0
  6 14  1  0
  7 15  1  0
  8 16  1  0
  8 17  1  0
M  END
