
     RDKit          3D

 17 17  0  0  0  0  0  0  0  0999 V2000
    3.1155   -0.1919    1.1688 O   0  0  0  0  0  0  0  0  0  0  0  0
    2.5974    0.0347    0.0928 C   0  0  0  0  0  0  0  0  0  0  0  0
    1.4467    0.9481   -0.1106 C   0  0  0  0  0  0  0  0  0  0  0  0
    0.1989    0.1651    0.2892 C   0  0  0  0  0  0  0  0  0  0  0  0
    0.0948   -0.9623   -0.5177 O   0  0  0  0  0  0  0  0  0  0  0  0
   -1.2337   -1.3920   -0.3643 C   0  0  0  0  0  0  0  0  0  0  0  0
   -2.0475   -0.1235   -0.4477 C   0  0  0  0  0  0  0  0  0  0  0  0
   -1.0303    0.9100   -0.0497 C   0  0  0  0  0  0  0  0  0  0  0  0
   -1.1841    2.1209   -0.0124 O   0  0  0  0  0  0  0  0  0  0  0  0
    2.9988   -0.4609   -0.7782 H   0  0  0  0  0  0  0  0  0  0  0  0
    1.3711    1.2277   -1.1650 H   0  0  0  0  0  0  0  0  0  0  0  0
    1.5116    1.8552    0.5257 H   0  0  0  0  0  0  0  0  0  0  0  0
    0.2590   -0.1253    1.3549 H   0  0  0  0  0  0  0  0  0  0  0  0
   -1.5005   -2.0613   -1.2236 H   0  0  0  0  0  0  0  0  0  0  0  0
   -1.3332   -1.9050    0.6056 H   0  0  0  0  0  0  0  0  0  0  0  0
   -2.8602   -0.1120    0.2978 H   0  0  0  0  0  0  0  0  0  0  0  0
   -2.4043    0.0726   -1.4858 H   0  0  0  0  0  0  0  0  0  0  0  0
  1  2  2  0
  2  3  1  0
  3  4  1  0
  4  5  1  0
  5  6  1  0
  6  7  1  0
  7  8  1  0
  8  9  2  0
  8  4  1  0
  2 10  1  0
  3 11  1  0
  3 12  1  0
  4 13  1  0
  6 14  1  0
  6 15  1  0
  7 16  1  0
  7 17  1  0
M  END
