
     RDKit          3D

 19 20  0  0  0  0  0  0  0  0999 V2000
    3.8157   -0.5891   -0.0147 O   0  0  0  0  0  0  0  0  0  0  0  0
    2.6997   -0.2732    0.3137 C   0  0  0  0  0  0  0  0  0  0  0  0
    1.5287   -0.3772   -0.6031 C   0  0  0  0  0  0  0  0  0  0  0  0
    0.5781    0.6786   -0.5412 C   0  0  0  0  0  0  0  0  0  0  0  0
   -0.0408    1.4295    0.5220 C   0  0  0  0  0  0  0  0  0  0  0  0
   -1.2810    1.0540    0.8236 C   0  0  0  0  0  0  0  0  0  0  0  0
   -2.0039   -0.0542    0.1341 C   0  0  0  0  0  0  0  0  0  0  0  0
   -1.0688   -1.0048   -0.6181 C   0  0  0  0  0  0  0  0  0  0  0  0
    0.2721   -0.7957   -0.0778 C   0  0  0  0  0  0  0  0  0  0  0  0
    2.4915    0.1136    1.3252 H   0  0  0  0  0  0  0  0  0  0  0  0
    1.8229   -0.7741   -1.5990 H   0  0  0  0  0  0  0  0  0  0  0  0
    0.1276    0.9816   -1.5367 H   0  0  0  0  0  0  0  0  0  0  0  0
    0.4457    2.2319    1.0410 H   0  0  0  0  0  0  0  0  0  0  0  0
   -1.8607    1.5482    1.6168 H   0  0  0  0  0  0  0  0  0  0  0  0
   -2.4544   -0.6807    0.9452 H   0  0  0  0  0  0  0  0  0  0  0  0
   -2.8176    0.3062   -0.5086 H   0  0  0  0  0  0  0  0  0  0  0  0
   -1.0733   -0.7662   -1.7102 H   0  0  0  0  0  0  0  0  0  0  0  0
   -1.4466   -2.0575   -0.5545 H   0  0  0  0  0  0  0  0  0  0  0  0
    0.2650   -0.9709    1.0422 H   0  0  0  0  0  0  0  0  0  0  0  0
  1  2  2  0
  2  3  1  0
  3  4  1  0
  4  5  1  0
  5  6  2  0
  6  7  1  0
  7  8  1  0
  8  9  1  0
  9  3  1  0
  9  4  1  0
  2 10  1  0
  3 11  1  0
  4 12  1  0
  5 13  1  0
  6 14  1  0
  7 15  1  0
  7 16  1  0
  8 17  1  0
  8 18  1  0
  9 19  1  0
M  END
