
     RDKit          3D

 21 22  0  0  0  0  0  0  0  0999 V2000
    0.0743    3.0206   -0.6362 O   0  0  0  0  0  0  0  0  0  0  0  0
   -0.6602    2.1874   -0.1596 C   0  0  0  0  0  0  0  0  0  0  0  0
   -0.2221    0.8306    0.0132 C   0  0  0  0  0  0  0  0  0  0  0  0
    1.0882    0.6433    0.7281 C   0  0  0  0  0  0  0  0  0  0  0  0
    1.4274   -0.8071    0.3741 C   0  0  0  0  0  0  0  0  0  0  0  0
    0.4005   -1.2474   -0.6376 C   0  0  0  0  0  0  0  0  0  0  0  0
   -0.9078   -1.4981    0.0686 C   0  0  0  0  0  0  0  0  0  0  0  0
   -1.2218   -0.1025    0.6288 C   0  0  0  0  0  0  0  0  0  0  0  0
    0.0754    0.0985   -1.3071 C   0  0  0  0  0  0  0  0  0  0  0  0
   -1.6493    2.4910    0.1308 H   0  0  0  0  0  0  0  0  0  0  0  0
    0.9303    0.7309    1.8331 H   0  0  0  0  0  0  0  0  0  0  0  0
    1.8454    1.3470    0.3788 H   0  0  0  0  0  0  0  0  0  0  0  0
    2.4357   -0.8603   -0.0789 H   0  0  0  0  0  0  0  0  0  0  0  0
    1.3236   -1.4714    1.2533 H   0  0  0  0  0  0  0  0  0  0  0  0
    0.7145   -2.0046   -1.3266 H   0  0  0  0  0  0  0  0  0  0  0  0
   -1.7003   -1.7858   -0.6432 H   0  0  0  0  0  0  0  0  0  0  0  0
   -0.7995   -2.2367    0.8600 H   0  0  0  0  0  0  0  0  0  0  0  0
   -1.0313   -0.1129    1.7415 H   0  0  0  0  0  0  0  0  0  0  0  0
   -2.2652    0.1822    0.4552 H   0  0  0  0  0  0  0  0  0  0  0  0
    0.9497    0.5715   -1.7356 H   0  0  0  0  0  0  0  0  0  0  0  0
   -0.8073    0.0237   -1.9409 H   0  0  0  0  0  0  0  0  0  0  0  0
  1  2  2  0
  2  3  1  0
  3  4  1  0
  4  5  1  0
  5  6  1  0
  6  7  1  0
  7  8  1  0
  6  9  1  0
  8  3  1  0
  9  3  1  0
  2 10  1  0
  4 11  1  0
  4 12  1  0
  5 13  1  0
  5 14  1  0
  6 15  1  0
  7 16  1  0
  7 17  1  0
  8 18  1  0
  8 19  1  0
  9 20  1  0
  9 21  1  0
M  END
