
     RDKit          3D

 21 22  0  0  0  0  0  0  0  0999 V2000
    3.3550   -1.0348    1.1666 O   0  0  0  0  0  0  0  0  0  0  0  0
    2.7984   -0.3987    0.2813 C   0  0  0  0  0  0  0  0  0  0  0  0
    1.6691    0.4967    0.5870 C   0  0  0  0  0  0  0  0  0  0  0  0
    0.5648    0.3655   -0.4506 C   0  0  0  0  0  0  0  0  0  0  0  0
   -0.5253    1.3080   -0.0442 C   0  0  0  0  0  0  0  0  0  0  0  0
   -1.6583    0.4473    0.4418 C   0  0  0  0  0  0  0  0  0  0  0  0
   -2.4288   -0.2300   -0.6025 C   0  0  0  0  0  0  0  0  0  0  0  0
   -1.3747   -0.9611    0.1734 C   0  0  0  0  0  0  0  0  0  0  0  0
    0.0276   -1.0317   -0.3836 C   0  0  0  0  0  0  0  0  0  0  0  0
    3.1854   -0.5341   -0.7294 H   0  0  0  0  0  0  0  0  0  0  0  0
    1.2534    0.2497    1.5674 H   0  0  0  0  0  0  0  0  0  0  0  0
    2.0290    1.5466    0.5315 H   0  0  0  0  0  0  0  0  0  0  0  0
    0.9599    0.5642   -1.4663 H   0  0  0  0  0  0  0  0  0  0  0  0
   -0.1879    2.0701    0.6977 H   0  0  0  0  0  0  0  0  0  0  0  0
   -0.8374    1.8925   -0.9438 H   0  0  0  0  0  0  0  0  0  0  0  0
   -2.0552    0.6766    1.4597 H   0  0  0  0  0  0  0  0  0  0  0  0
   -3.4850   -0.4470   -0.3709 H   0  0  0  0  0  0  0  0  0  0  0  0
   -2.2149   -0.0243   -1.6505 H   0  0  0  0  0  0  0  0  0  0  0  0
   -1.6877   -1.7514    0.8671 H   0  0  0  0  0  0  0  0  0  0  0  0
    0.6367   -1.7006    0.2604 H   0  0  0  0  0  0  0  0  0  0  0  0
   -0.0239   -1.5035   -1.3924 H   0  0  0  0  0  0  0  0  0  0  0  0
  1  2  2  0
  2  3  1  0
  3  4  1  0
  4  5  1  0
  5  6  1  0
  6  7  1  0
  7  8  1  0
  8  9  1  0
  9  4  1  0
  8  6  1  0
  2 10  1  0
  3 11  1  0
  3 12  1  0
  4 13  1  0
  5 14  1  0
  5 15  1  0
  6 16  1  0
  7 17  1  0
  7 18  1  0
  8 19  1  0
  9 20  1  0
  9 21  1  0
M  END
