
     RDKit          3D

 17 18  0  0  0  0  0  0  0  0999 V2000
    3.4263   -0.4113   -0.6077 O   0  0  0  0  0  0  0  0  0  0  0  0
    2.3830   -0.0955   -0.0711 C   0  0  0  0  0  0  0  0  0  0  0  0
    1.4066    0.8582   -0.7002 C   0  0  0  0  0  0  0  0  0  0  0  0
    0.3075    1.0717    0.0699 O   0  0  0  0  0  0  0  0  0  0  0  0
   -0.3985   -0.0742    0.3634 C   0  0  0  0  0  0  0  0  0  0  0  0
   -0.9357   -0.7061   -0.8929 C   0  0  0  0  0  0  0  0  0  0  0  0
   -1.7728    0.4484   -0.8527 O   0  0  0  0  0  0  0  0  0  0  0  0
   -1.9640    0.0027    0.4443 C   0  0  0  0  0  0  0  0  0  0  0  0
   -1.1500    0.1086    1.5996 C   0  0  0  0  0  0  0  0  0  0  0  0
    2.1862   -0.5396    0.8958 H   0  0  0  0  0  0  0  0  0  0  0  0
    1.1594    0.5020   -1.7064 H   0  0  0  0  0  0  0  0  0  0  0  0
    1.9376    1.8371   -0.8698 H   0  0  0  0  0  0  0  0  0  0  0  0
   -0.3703   -0.6621   -1.8033 H   0  0  0  0  0  0  0  0  0  0  0  0
   -1.4789   -1.6625   -0.7442 H   0  0  0  0  0  0  0  0  0  0  0  0
   -2.4971   -0.9964    0.3587 H   0  0  0  0  0  0  0  0  0  0  0  0
   -1.0429   -0.7487    2.3297 H   0  0  0  0  0  0  0  0  0  0  0  0
   -1.1964    1.0677    2.1870 H   0  0  0  0  0  0  0  0  0  0  0  0
  1  2  2  0
  2  3  1  0
  3  4  1  0
  4  5  1  0
  5  6  1  0
  6  7  1  0
  7  8  1  0
  8  9  1  0
  8  5  1  0
  9  5  1  0
  2 10  1  0
  3 11  1  0
  3 12  1  0
  6 13  1  0
  6 14  1  0
  8 15  1  0
  9 16  1  0
  9 17  1  0
M  END
