
     RDKit          3D

 19 20  0  0  0  0  0  0  0  0999 V2000
    3.0162   -1.3873   -0.2491 O   0  0  0  0  0  0  0  0  0  0  0  0
    2.2174   -0.4952    0.0179 C   0  0  0  0  0  0  0  0  0  0  0  0
    0.9348   -0.4869   -0.7243 C   0  0  0  0  0  0  0  0  0  0  0  0
    0.0892    0.6719   -0.1525 C   0  0  0  0  0  0  0  0  0  0  0  0
   -0.1375    0.4051    1.3083 C   0  0  0  0  0  0  0  0  0  0  0  0
   -0.7661   -0.9747    1.0662 C   0  0  0  0  0  0  0  0  0  0  0  0
   -1.5385   -0.8006    0.0036 C   0  0  0  0  0  0  0  0  0  0  0  0
   -1.4487    0.5623   -0.4260 C   0  0  0  0  0  0  0  0  0  0  0  0
   -0.5848    1.4037   -1.1378 C   0  0  0  0  0  0  0  0  0  0  0  0
    2.5183    0.2085    0.7711 H   0  0  0  0  0  0  0  0  0  0  0  0
    1.1741   -0.3300   -1.7811 H   0  0  0  0  0  0  0  0  0  0  0  0
    0.4315   -1.4554   -0.5899 H   0  0  0  0  0  0  0  0  0  0  0  0
    0.8123    0.1878    1.8216 H   0  0  0  0  0  0  0  0  0  0  0  0
   -0.8091    1.0718    1.8230 H   0  0  0  0  0  0  0  0  0  0  0  0
   -0.5827   -1.8602    1.6646 H   0  0  0  0  0  0  0  0  0  0  0  0
   -2.1304   -1.5925   -0.4411 H   0  0  0  0  0  0  0  0  0  0  0  0
   -2.1357    1.1617    0.2711 H   0  0  0  0  0  0  0  0  0  0  0  0
   -0.4396    1.1906   -2.2268 H   0  0  0  0  0  0  0  0  0  0  0  0
   -0.6208    2.5195   -1.0188 H   0  0  0  0  0  0  0  0  0  0  0  0
  1  2  2  0
  2  3  1  0
  3  4  1  0
  4  5  1  0
  5  6  1  0
  6  7  2  0
  7  8  1  0
  8  9  1  0
  8  4  1  0
  9  4  1  0
  2 10  1  0
  3 11  1  0
  3 12  1  0
  5 13  1  0
  5 14  1  0
  6 15  1  0
  7 16  1  0
  8 17  1  0
  9 18  1  0
  9 19  1  0
M  END
