
     RDKit          3D

 15 15  0  0  0  0  0  0  0  0999 V2000
    2.2486    0.1656   -1.5795 O   0  0  0  0  0  0  0  0  0  0  0  0
    2.3146    0.4585   -0.4022 C   0  0  0  0  0  0  0  0  0  0  0  0
    1.1456    0.3886    0.5287 C   0  0  0  0  0  0  0  0  0  0  0  0
   -0.0730   -0.0795   -0.1831 C   0  0  0  0  0  0  0  0  0  0  0  0
   -1.2660   -0.1550    0.7505 C   0  0  0  0  0  0  0  0  0  0  0  0
   -1.9085    0.0600   -0.5852 C   0  0  0  0  0  0  0  0  0  0  0  0
   -0.8212    0.9045   -0.8622 O   0  0  0  0  0  0  0  0  0  0  0  0
    3.2671    0.7876   -0.0026 H   0  0  0  0  0  0  0  0  0  0  0  0
    1.3969   -0.3829    1.2879 H   0  0  0  0  0  0  0  0  0  0  0  0
    1.0053    1.3568    1.0266 H   0  0  0  0  0  0  0  0  0  0  0  0
    0.0150   -0.9577   -0.8127 H   0  0  0  0  0  0  0  0  0  0  0  0
   -1.3613   -1.1376    1.2085 H   0  0  0  0  0  0  0  0  0  0  0  0
   -1.2583    0.7229    1.4208 H   0  0  0  0  0  0  0  0  0  0  0  0
   -1.8147   -0.8785   -1.1955 H   0  0  0  0  0  0  0  0  0  0  0  0
   -2.8901    0.5370   -0.5999 H   0  0  0  0  0  0  0  0  0  0  0  0
  1  2  2  0
  2  3  1  0
  3  4  1  0
  4  5  1  0
  5  6  1  0
  6  7  1  0
  7  4  1  0
  2  8  1  0
  3  9  1  0
  3 10  1  0
  4 11  1  0
  5 12  1  0
  5 13  1  0
  6 14  1  0
  6 15  1  0
M  END
