
     RDKit          3D

 17 17  0  0  0  0  0  0  0  0999 V2000
   -0.5184   -2.6932    0.3336 O   0  0  0  0  0  0  0  0  0  0  0  0
   -0.9518   -1.6836   -0.1595 C   0  0  0  0  0  0  0  0  0  0  0  0
   -0.3246   -0.3836    0.1445 C   0  0  0  0  0  0  0  0  0  0  0  0
   -1.3454    0.5794    0.7659 C   0  0  0  0  0  0  0  0  0  0  0  0
   -2.4157    0.7001   -0.0893 O   0  0  0  0  0  0  0  0  0  0  0  0
    0.7348   -0.4975    1.0009 O   0  0  0  0  0  0  0  0  0  0  0  0
    1.8191    0.1602    0.4802 C   0  0  0  0  0  0  0  0  0  0  0  0
    1.4702    0.3451   -0.9764 C   0  0  0  0  0  0  0  0  0  0  0  0
    0.1137    0.1717   -1.0425 O   0  0  0  0  0  0  0  0  0  0  0  0
   -1.7923   -1.7279   -0.8188 H   0  0  0  0  0  0  0  0  0  0  0  0
   -0.8234    1.5320    0.9661 H   0  0  0  0  0  0  0  0  0  0  0  0
   -1.6838    0.1924    1.7479 H   0  0  0  0  0  0  0  0  0  0  0  0
   -2.6098    1.6060   -0.3737 H   0  0  0  0  0  0  0  0  0  0  0  0
    1.9009    1.1769    0.9201 H   0  0  0  0  0  0  0  0  0  0  0  0
    2.7703   -0.4047    0.5318 H   0  0  0  0  0  0  0  0  0  0  0  0
    1.7137    1.3652   -1.3383 H   0  0  0  0  0  0  0  0  0  0  0  0
    1.9426   -0.4385   -1.6140 H   0  0  0  0  0  0  0  0  0  0  0  0
  1  2  2  0
  2  3  1  0
  3  4  1  0
  4  5  1  0
  3  6  1  0
  6  7  1  0
  7  8  1  0
  8  9  1  0
  9  3  1  0
  2 10  1  0
  4 11  1  0
  4 12  1  0
  5 13  1  0
  7 14  1  0
  7 15  1  0
  8 16  1  0
  8 17  1  0
M  END
