
     RDKit          3D

 17 18  0  0  0  0  0  0  0  0999 V2000
    1.4370    0.9562   -1.8365 O   0  0  0  0  0  0  0  0  0  0  0  0
    1.4071    1.2380   -0.6706 C   0  0  0  0  0  0  0  0  0  0  0  0
    0.8630    0.3266    0.3430 C   0  0  0  0  0  0  0  0  0  0  0  0
    1.0853   -1.1324    0.0293 C   0  0  0  0  0  0  0  0  0  0  0  0
    0.1405   -1.7543    0.8334 O   0  0  0  0  0  0  0  0  0  0  0  0
   -1.0325   -0.9986    0.7361 C   0  0  0  0  0  0  0  0  0  0  0  0
   -1.4459   -0.4273   -0.5634 C   0  0  0  0  0  0  0  0  0  0  0  0
   -0.6651    0.3818    0.3918 C   0  0  0  0  0  0  0  0  0  0  0  0
   -1.2721    1.4901    0.9171 O   0  0  0  0  0  0  0  0  0  0  0  0
    1.7938    2.2004   -0.3394 H   0  0  0  0  0  0  0  0  0  0  0  0
    1.2238    0.5117    1.3609 H   0  0  0  0  0  0  0  0  0  0  0  0
    0.9197   -1.3900   -1.0136 H   0  0  0  0  0  0  0  0  0  0  0  0
    2.1065   -1.4021    0.3467 H   0  0  0  0  0  0  0  0  0  0  0  0
   -1.8069   -1.2686    1.4565 H   0  0  0  0  0  0  0  0  0  0  0  0
   -0.9452   -0.7233   -1.5030 H   0  0  0  0  0  0  0  0  0  0  0  0
   -2.5061   -0.1904   -0.6759 H   0  0  0  0  0  0  0  0  0  0  0  0
   -1.3030    2.1821    0.1875 H   0  0  0  0  0  0  0  0  0  0  0  0
  1  2  2  0
  2  3  1  0
  3  4  1  0
  4  5  1  0
  5  6  1  0
  6  7  1  0
  7  8  1  0
  8  9  1  0
  8  3  1  0
  8  6  1  0
  2 10  1  0
  3 11  1  0
  4 12  1  0
  4 13  1  0
  6 14  1  0
  7 15  1  0
  7 16  1  0
  9 17  1  0
M  END
