
     RDKit          3D

 15 16  0  0  0  0  0  0  0  0999 V2000
    2.6970   -0.0187   -1.0333 O   0  0  0  0  0  0  0  0  0  0  0  0
    2.4948   -0.0205    0.2077 C   0  0  0  0  0  0  0  0  0  0  0  0
    1.1549    0.1832    0.7416 C   0  0  0  0  0  0  0  0  0  0  0  0
    0.9804    0.1766    1.9938 O   0  0  0  0  0  0  0  0  0  0  0  0
    0.0264    0.3935   -0.1926 C   0  0  0  0  0  0  0  0  0  0  0  0
   -1.3092    0.5924    0.4887 C   0  0  0  0  0  0  0  0  0  0  0  0
   -1.8759   -0.4639   -0.4254 C   0  0  0  0  0  0  0  0  0  0  0  0
   -1.3254   -1.7145   -0.2860 O   0  0  0  0  0  0  0  0  0  0  0  0
   -0.4701   -0.8226   -0.9028 C   0  0  0  0  0  0  0  0  0  0  0  0
    3.3408   -0.1778    0.8910 H   0  0  0  0  0  0  0  0  0  0  0  0
    0.1835    1.2270   -0.9257 H   0  0  0  0  0  0  0  0  0  0  0  0
   -1.7492    1.6030    0.3784 H   0  0  0  0  0  0  0  0  0  0  0  0
   -1.2836    0.1961    1.5306 H   0  0  0  0  0  0  0  0  0  0  0  0
   -2.5599   -0.2055   -1.2303 H   0  0  0  0  0  0  0  0  0  0  0  0
   -0.3046   -0.9485   -1.9768 H   0  0  0  0  0  0  0  0  0  0  0  0
  1  2  2  0
  2  3  1  0
  3  4  2  0
  3  5  1  0
  5  6  1  0
  6  7  1  0
  7  8  1  0
  8  9  1  0
  9  5  1  0
  9  7  1  0
  2 10  1  0
  5 11  1  0
  6 12  1  0
  6 13  1  0
  7 14  1  0
  9 15  1  0
M  END
