
     RDKit          3D

 17 18  0  0  0  0  0  0  0  0999 V2000
   -0.8025    0.5018   -2.4126 O   0  0  0  0  0  0  0  0  0  0  0  0
   -1.2033    0.9349   -1.3561 C   0  0  0  0  0  0  0  0  0  0  0  0
   -1.1261    0.1409   -0.1483 C   0  0  0  0  0  0  0  0  0  0  0  0
   -0.6904   -1.3021   -0.3028 C   0  0  0  0  0  0  0  0  0  0  0  0
    0.1078   -0.3558    0.4669 C   0  0  0  0  0  0  0  0  0  0  0  0
    1.4651    0.1079    0.1021 C   0  0  0  0  0  0  0  0  0  0  0  0
    1.8031   -0.1008   -1.2143 O   0  0  0  0  0  0  0  0  0  0  0  0
   -0.4508    0.1063    1.7843 C   0  0  0  0  0  0  0  0  0  0  0  0
   -1.5668    0.5880    1.0717 O   0  0  0  0  0  0  0  0  0  0  0  0
   -1.6203    1.9255   -1.3300 H   0  0  0  0  0  0  0  0  0  0  0  0
   -0.3647   -1.6057   -1.2927 H   0  0  0  0  0  0  0  0  0  0  0  0
   -1.3855   -2.0128    0.1883 H   0  0  0  0  0  0  0  0  0  0  0  0
    2.2156   -0.4211    0.7308 H   0  0  0  0  0  0  0  0  0  0  0  0
    1.5422    1.2087    0.3318 H   0  0  0  0  0  0  0  0  0  0  0  0
    2.7441    0.2005   -1.3378 H   0  0  0  0  0  0  0  0  0  0  0  0
   -0.7892   -0.7782    2.3926 H   0  0  0  0  0  0  0  0  0  0  0  0
    0.1216    0.8621    2.3261 H   0  0  0  0  0  0  0  0  0  0  0  0
  1  2  2  0
  2  3  1  0
  3  4  1  0
  4  5  1  0
  5  6  1  0
  6  7  1  0
  5  8  1  0
  8  9  1  0
  5  3  1  0
  9  3  1  0
  2 10  1  0
  4 11  1  0
  4 12  1  0
  6 13  1  0
  6 14  1  0
  7 15  1  0
  8 16  1  0
  8 17  1  0
M  END
