
     RDKit          3D

 13 13  0  0  0  0  0  0  0  0999 V2000
   -2.3553    0.4417    1.2093 O   0  0  0  0  0  0  0  0  0  0  0  0
   -1.5522   -0.4433    0.9166 C   0  0  0  0  0  0  0  0  0  0  0  0
   -0.7024   -0.2461   -0.2777 C   0  0  0  0  0  0  0  0  0  0  0  0
    0.5244   -1.0756   -0.2412 C   0  0  0  0  0  0  0  0  0  0  0  0
    1.6098   -0.3308   -0.2547 C   0  0  0  0  0  0  0  0  0  0  0  0
    1.2306    1.0756   -0.3017 C   0  0  0  0  0  0  0  0  0  0  0  0
    2.0782    2.0032   -0.3231 O   0  0  0  0  0  0  0  0  0  0  0  0
   -0.2262    1.1374   -0.3165 C   0  0  0  0  0  0  0  0  0  0  0  0
   -0.8854    2.1909   -0.3550 O   0  0  0  0  0  0  0  0  0  0  0  0
   -1.5115   -1.3225    1.5525 H   0  0  0  0  0  0  0  0  0  0  0  0
   -1.3383   -0.5012   -1.1687 H   0  0  0  0  0  0  0  0  0  0  0  0
    0.5103   -2.1684   -0.2073 H   0  0  0  0  0  0  0  0  0  0  0  0
    2.6180   -0.7608   -0.2325 H   0  0  0  0  0  0  0  0  0  0  0  0
  1  2  2  0
  2  3  1  0
  3  4  1  0
  4  5  2  0
  5  6  1  0
  6  7  2  0
  6  8  1  0
  8  9  2  0
  8  3  1  0
  2 10  1  0
  3 11  1  0
  4 12  1  0
  5 13  1  0
M  END
