
     RDKit          3D

 17 20  0  0  0  0  0  0  0  0999 V2000
    2.8404    0.2824   -1.0852 O   0  0  0  0  0  0  0  0  0  0  0  0
    2.2007   -0.3920   -0.3276 C   0  0  0  0  0  0  0  0  0  0  0  0
    0.8000   -0.1608   -0.0947 C   0  0  0  0  0  0  0  0  0  0  0  0
   -0.0145   -0.7446    0.9636 C   0  0  0  0  0  0  0  0  0  0  0  0
   -1.3493   -0.9750    0.2933 C   0  0  0  0  0  0  0  0  0  0  0  0
   -1.4892    0.2768   -0.5486 C   0  0  0  0  0  0  0  0  0  0  0  0
   -0.6727    1.3265    0.0188 C   0  0  0  0  0  0  0  0  0  0  0  0
   -0.1232    0.4852   -1.0552 C   0  0  0  0  0  0  0  0  0  0  0  0
    0.2521    0.6762    0.9967 C   0  0  0  0  0  0  0  0  0  0  0  0
    2.7094   -1.2093    0.2001 H   0  0  0  0  0  0  0  0  0  0  0  0
    0.3467   -1.4296    1.7368 H   0  0  0  0  0  0  0  0  0  0  0  0
   -1.1866   -1.8064   -0.4429 H   0  0  0  0  0  0  0  0  0  0  0  0
   -2.1726   -1.1447    0.9783 H   0  0  0  0  0  0  0  0  0  0  0  0
   -2.3082    0.3899   -1.2505 H   0  0  0  0  0  0  0  0  0  0  0  0
   -0.8360    2.3885   -0.0330 H   0  0  0  0  0  0  0  0  0  0  0  0
    0.1408    0.8140   -2.0424 H   0  0  0  0  0  0  0  0  0  0  0  0
    0.8622    1.2230    1.6925 H   0  0  0  0  0  0  0  0  0  0  0  0
  1  2  2  0
  2  3  1  0
  3  4  1  0
  4  5  1  0
  5  6  1  0
  6  7  1  0
  7  8  1  0
  7  9  1  0
  8  3  1  0
  9  3  1  0
  9  4  1  0
  8  6  1  0
  2 10  1  0
  4 11  1  0
  5 12  1  0
  5 13  1  0
  6 14  1  0
  7 15  1  0
  8 16  1  0
  9 17  1  0
M  END
