
     RDKit          3D

 15 16  0  0  0  0  0  0  0  0999 V2000
    2.7877    0.4414    0.2294 O   0  0  0  0  0  0  0  0  0  0  0  0
    1.7823   -0.2349    0.2321 C   0  0  0  0  0  0  0  0  0  0  0  0
    0.5046    0.3266   -0.1752 C   0  0  0  0  0  0  0  0  0  0  0  0
    0.5362    1.6536   -0.5528 O   0  0  0  0  0  0  0  0  0  0  0  0
   -0.3889   -0.5344   -1.0281 C   0  0  0  0  0  0  0  0  0  0  0  0
   -1.4946    0.3712   -0.5496 C   0  0  0  0  0  0  0  0  0  0  0  0
   -0.6888    0.0386    0.6837 C   0  0  0  0  0  0  0  0  0  0  0  0
   -0.6428   -1.3143    0.1606 C   0  0  0  0  0  0  0  0  0  0  0  0
   -0.7590   -2.4234    0.5500 O   0  0  0  0  0  0  0  0  0  0  0  0
    1.8718   -1.2602    0.5456 H   0  0  0  0  0  0  0  0  0  0  0  0
    1.4327    2.0483   -0.4702 H   0  0  0  0  0  0  0  0  0  0  0  0
   -0.2195   -0.8228   -1.9717 H   0  0  0  0  0  0  0  0  0  0  0  0
   -1.3500    1.3857   -0.9565 H   0  0  0  0  0  0  0  0  0  0  0  0
   -2.5011   -0.0377   -0.5302 H   0  0  0  0  0  0  0  0  0  0  0  0
   -0.8705    0.3625    1.6123 H   0  0  0  0  0  0  0  0  0  0  0  0
  1  2  2  0
  2  3  1  0
  3  4  1  0
  3  5  1  0
  5  6  1  0
  6  7  1  0
  7  8  1  0
  8  9  2  0
  7  3  1  0
  8  5  1  0
  2 10  1  0
  4 11  1  0
  5 12  1  0
  6 13  1  0
  6 14  1  0
  7 15  1  0
M  END
