
     RDKit          3D

 21 21  0  0  0  0  0  0  0  0999 V2000
    1.7694    0.4159    1.6459 O   0  0  0  0  0  0  0  0  0  0  0  0
    2.3353    0.4790    0.5746 C   0  0  0  0  0  0  0  0  0  0  0  0
    1.7656    0.0980   -0.7231 C   0  0  0  0  0  0  0  0  0  0  0  0
    0.3569   -0.4049   -0.6505 C   0  0  0  0  0  0  0  0  0  0  0  0
    0.1299   -1.6279    0.1966 C   0  0  0  0  0  0  0  0  0  0  0  0
   -0.8911   -0.8597    0.9832 C   0  0  0  0  0  0  0  0  0  0  0  0
   -0.6020    0.3781    0.1731 C   0  0  0  0  0  0  0  0  0  0  0  0
   -1.7757    0.8544   -0.6817 C   0  0  0  0  0  0  0  0  0  0  0  0
   -2.6852    1.5890    0.0685 O   0  0  0  0  0  0  0  0  0  0  0  0
    3.3537    0.8516    0.5851 H   0  0  0  0  0  0  0  0  0  0  0  0
    1.7403    1.0168   -1.3608 H   0  0  0  0  0  0  0  0  0  0  0  0
    2.4089   -0.6227   -1.2248 H   0  0  0  0  0  0  0  0  0  0  0  0
   -0.0004   -0.6251   -1.6966 H   0  0  0  0  0  0  0  0  0  0  0  0
    1.0112   -1.9911    0.7447 H   0  0  0  0  0  0  0  0  0  0  0  0
   -0.3615   -2.4872   -0.3184 H   0  0  0  0  0  0  0  0  0  0  0  0
   -1.9464   -1.1635    0.8284 H   0  0  0  0  0  0  0  0  0  0  0  0
   -0.6511   -0.8267    2.0453 H   0  0  0  0  0  0  0  0  0  0  0  0
   -0.2271    1.2296    0.7448 H   0  0  0  0  0  0  0  0  0  0  0  0
   -1.3377    1.5429   -1.4377 H   0  0  0  0  0  0  0  0  0  0  0  0
   -2.2286    0.0133   -1.2200 H   0  0  0  0  0  0  0  0  0  0  0  0
   -2.1642    2.1402    0.7233 H   0  0  0  0  0  0  0  0  0  0  0  0
  1  2  2  0
  2  3  1  0
  3  4  1  0
  4  5  1  0
  5  6  1  0
  6  7  1  0
  7  8  1  0
  8  9  1  0
  7  4  1  0
  2 10  1  0
  3 11  1  0
  3 12  1  0
  4 13  1  0
  5 14  1  0
  5 15  1  0
  6 16  1  0
  6 17  1  0
  7 18  1  0
  8 19  1  0
  8 20  1  0
  9 21  1  0
M  END
