
     RDKit          3D

 18 18  0  0  0  0  0  0  0  0999 V2000
    3.6455   -0.3738   -0.6909 O   0  0  0  0  0  0  0  0  0  0  0  0
    2.5146    0.0268   -0.4267 C   0  0  0  0  0  0  0  0  0  0  0  0
    1.8700   -0.5516    0.7703 C   0  0  0  0  0  0  0  0  0  0  0  0
    0.5955    0.0039    0.9332 O   0  0  0  0  0  0  0  0  0  0  0  0
   -0.2209   -0.2365   -0.1437 C   0  0  0  0  0  0  0  0  0  0  0  0
   -0.9322    0.9987   -0.6985 C   0  0  0  0  0  0  0  0  0  0  0  0
   -2.0396    0.7081    0.2986 C   0  0  0  0  0  0  0  0  0  0  0  0
   -1.6125   -0.7590    0.1960 C   0  0  0  0  0  0  0  0  0  0  0  0
    1.9975    0.7570   -1.0152 H   0  0  0  0  0  0  0  0  0  0  0  0
    2.5240   -0.3305    1.6359 H   0  0  0  0  0  0  0  0  0  0  0  0
    1.8058   -1.6672    0.7184 H   0  0  0  0  0  0  0  0  0  0  0  0
    0.2944   -0.8243   -0.9292 H   0  0  0  0  0  0  0  0  0  0  0  0
   -1.3066    0.7708   -1.7261 H   0  0  0  0  0  0  0  0  0  0  0  0
   -0.4108    1.9397   -0.5702 H   0  0  0  0  0  0  0  0  0  0  0  0
   -3.0570    0.9050   -0.0965 H   0  0  0  0  0  0  0  0  0  0  0  0
   -1.8914    1.1478    1.2963 H   0  0  0  0  0  0  0  0  0  0  0  0
   -2.1000   -1.1978   -0.6873 H   0  0  0  0  0  0  0  0  0  0  0  0
   -1.6764   -1.3171    1.1359 H   0  0  0  0  0  0  0  0  0  0  0  0
  1  2  2  0
  2  3  1  0
  3  4  1  0
  4  5  1  0
  5  6  1  0
  6  7  1  0
  7  8  1  0
  8  5  1  0
  2  9  1  0
  3 10  1  0
  3 11  1  0
  5 12  1  0
  6 13  1  0
  6 14  1  0
  7 15  1  0
  7 16  1  0
  8 17  1  0
  8 18  1  0
M  END
