
     RDKit          3D

 19 20  0  0  0  0  0  0  0  0999 V2000
    2.7697   -0.2003   -0.9965 O   0  0  0  0  0  0  0  0  0  0  0  0
    2.0975   -0.5367   -0.0142 C   0  0  0  0  0  0  0  0  0  0  0  0
    0.6941   -0.1595    0.0170 C   0  0  0  0  0  0  0  0  0  0  0  0
   -0.3267   -1.2592   -0.0286 C   0  0  0  0  0  0  0  0  0  0  0  0
   -1.6937   -0.7070   -0.2356 C   0  0  0  0  0  0  0  0  0  0  0  0
   -1.8555    0.6106    0.0470 O   0  0  0  0  0  0  0  0  0  0  0  0
   -0.7194    1.3563    0.1554 C   0  0  0  0  0  0  0  0  0  0  0  0
    0.2710    0.7574    1.1641 C   0  0  0  0  0  0  0  0  0  0  0  0
    0.2683    0.9378   -0.9294 C   0  0  0  0  0  0  0  0  0  0  0  0
    2.5310   -1.0879    0.7894 H   0  0  0  0  0  0  0  0  0  0  0  0
   -0.2943   -1.7618    0.9812 H   0  0  0  0  0  0  0  0  0  0  0  0
   -0.0145   -1.9928   -0.7817 H   0  0  0  0  0  0  0  0  0  0  0  0
   -2.0023   -0.9646   -1.2861 H   0  0  0  0  0  0  0  0  0  0  0  0
   -2.4225   -1.2850    0.4056 H   0  0  0  0  0  0  0  0  0  0  0  0
   -0.8908    2.4203    0.2538 H   0  0  0  0  0  0  0  0  0  0  0  0
    1.0317    1.4815    1.4763 H   0  0  0  0  0  0  0  0  0  0  0  0
   -0.2444    0.2167    1.9952 H   0  0  0  0  0  0  0  0  0  0  0  0
   -0.2227    0.4906   -1.8256 H   0  0  0  0  0  0  0  0  0  0  0  0
    1.0236    1.6836   -1.1872 H   0  0  0  0  0  0  0  0  0  0  0  0
  1  2  2  0
  2  3  1  0
  3  4  1  0
  4  5  1  0
  5  6  1  0
  6  7  1  0
  7  8  1  0
  7  9  1  0
  8  3  1  0
  9  3  1  0
  2 10  1  0
  4 11  1  0
  4 12  1  0
  5 13  1  0
  5 14  1  0
  7 15  1  0
  8 16  1  0
  8 17  1  0
  9 18  1  0
  9 19  1  0
M  END
