
     RDKit          3D

 16 17  0  0  0  0  0  0  0  0999 V2000
    3.1575   -0.6429    0.6774 O   0  0  0  0  0  0  0  0  0  0  0  0
    2.4091    0.0493   -0.0589 C   0  0  0  0  0  0  0  0  0  0  0  0
    0.9695   -0.0798    0.0504 C   0  0  0  0  0  0  0  0  0  0  0  0
    0.2909   -0.8750    0.8690 C   0  0  0  0  0  0  0  0  0  0  0  0
   -1.1202   -0.5463    0.5471 C   0  0  0  0  0  0  0  0  0  0  0  0
   -1.0191    0.9864    0.4605 C   0  0  0  0  0  0  0  0  0  0  0  0
   -0.0717    0.6167   -0.6957 C   0  0  0  0  0  0  0  0  0  0  0  0
   -1.1026   -0.4788   -0.9626 C   0  0  0  0  0  0  0  0  0  0  0  0
    2.9001    0.7182   -0.7489 H   0  0  0  0  0  0  0  0  0  0  0  0
    0.6610   -1.5926    1.5982 H   0  0  0  0  0  0  0  0  0  0  0  0
   -1.9196   -0.9739    1.0665 H   0  0  0  0  0  0  0  0  0  0  0  0
   -1.9807    1.3906    0.1225 H   0  0  0  0  0  0  0  0  0  0  0  0
   -0.5302    1.4597    1.3123 H   0  0  0  0  0  0  0  0  0  0  0  0
    0.1218    1.3356   -1.4313 H   0  0  0  0  0  0  0  0  0  0  0  0
   -0.7322   -1.3562   -1.4827 H   0  0  0  0  0  0  0  0  0  0  0  0
   -2.0338   -0.0111   -1.3238 H   0  0  0  0  0  0  0  0  0  0  0  0
  1  2  2  0
  2  3  1  0
  3  4  2  0
  4  5  1  0
  5  6  1  0
  6  7  1  0
  7  8  1  0
  7  3  1  0
  8  5  1  0
  2  9  1  0
  4 10  1  0
  5 11  1  0
  6 12  1  0
  6 13  1  0
  7 14  1  0
  8 15  1  0
  8 16  1  0
M  END
