
     RDKit          3D

 19 20  0  0  0  0  0  0  0  0999 V2000
    2.3382   -1.5214   -0.2843 O   0  0  0  0  0  0  0  0  0  0  0  0
    2.5114   -0.4154    0.2321 C   0  0  0  0  0  0  0  0  0  0  0  0
    1.6300    0.7443   -0.0515 C   0  0  0  0  0  0  0  0  0  0  0  0
    2.0867    1.8189    0.6725 O   0  0  0  0  0  0  0  0  0  0  0  0
    0.2220    0.3468    0.3207 C   0  0  0  0  0  0  0  0  0  0  0  0
   -0.3443   -0.8037   -0.3902 C   0  0  0  0  0  0  0  0  0  0  0  0
   -1.7310   -1.3075   -0.1483 C   0  0  0  0  0  0  0  0  0  0  0  0
   -2.2585    0.1025   -0.0687 C   0  0  0  0  0  0  0  0  0  0  0  0
   -0.9164    0.5827   -0.5606 C   0  0  0  0  0  0  0  0  0  0  0  0
    3.3427   -0.3080    0.9146 H   0  0  0  0  0  0  0  0  0  0  0  0
    1.6389    0.9540   -1.1613 H   0  0  0  0  0  0  0  0  0  0  0  0
    1.6274    2.6682    0.4807 H   0  0  0  0  0  0  0  0  0  0  0  0
    0.0313    0.4113    1.4267 H   0  0  0  0  0  0  0  0  0  0  0  0
    0.2164   -1.2659   -1.2227 H   0  0  0  0  0  0  0  0  0  0  0  0
   -2.1318   -1.7985   -1.0565 H   0  0  0  0  0  0  0  0  0  0  0  0
   -1.8761   -1.9230    0.7603 H   0  0  0  0  0  0  0  0  0  0  0  0
   -3.1030    0.3333   -0.7469 H   0  0  0  0  0  0  0  0  0  0  0  0
   -2.4575    0.3842    0.9949 H   0  0  0  0  0  0  0  0  0  0  0  0
   -0.8263    0.9971   -1.5821 H   0  0  0  0  0  0  0  0  0  0  0  0
  1  2  2  0
  2  3  1  0
  3  4  1  0
  3  5  1  0
  5  6  1  0
  6  7  1  0
  7  8  1  0
  8  9  1  0
  9  5  1  0
  9  6  1  0
  2 10  1  0
  3 11  1  0
  4 12  1  0
  5 13  1  0
  6 14  1  0
  7 15  1  0
  7 16  1  0
  8 17  1  0
  8 18  1  0
  9 19  1  0
M  END
