
     RDKit          3D

 19 19  0  0  0  0  0  0  0  0999 V2000
    0.5597    2.8035    0.5857 O   0  0  0  0  0  0  0  0  0  0  0  0
    0.4304    1.6188    0.8088 C   0  0  0  0  0  0  0  0  0  0  0  0
    0.4074    0.5891   -0.2194 C   0  0  0  0  0  0  0  0  0  0  0  0
    0.5602    1.2325   -1.4712 O   0  0  0  0  0  0  0  0  0  0  0  0
    1.6695   -0.2678   -0.0455 C   0  0  0  0  0  0  0  0  0  0  0  0
    1.7988   -1.1971   -1.0498 O   0  0  0  0  0  0  0  0  0  0  0  0
   -0.8160   -0.2422   -0.2914 C   0  0  0  0  0  0  0  0  0  0  0  0
   -1.2499   -1.0673    0.8778 C   0  0  0  0  0  0  0  0  0  0  0  0
   -2.0955    0.0976    0.3435 C   0  0  0  0  0  0  0  0  0  0  0  0
    0.3268    1.3248    1.8418 H   0  0  0  0  0  0  0  0  0  0  0  0
    0.4440    0.5501   -2.1805 H   0  0  0  0  0  0  0  0  0  0  0  0
    1.6533   -0.7877    0.9368 H   0  0  0  0  0  0  0  0  0  0  0  0
    2.5717    0.3734   -0.0469 H   0  0  0  0  0  0  0  0  0  0  0  0
    2.2700   -1.9784   -0.6764 H   0  0  0  0  0  0  0  0  0  0  0  0
   -0.9178   -0.7840   -1.2754 H   0  0  0  0  0  0  0  0  0  0  0  0
   -0.6611   -0.8977    1.7992 H   0  0  0  0  0  0  0  0  0  0  0  0
   -1.6676   -2.0792    0.7247 H   0  0  0  0  0  0  0  0  0  0  0  0
   -3.0562   -0.1857   -0.1534 H   0  0  0  0  0  0  0  0  0  0  0  0
   -2.2278    0.8975    1.0815 H   0  0  0  0  0  0  0  0  0  0  0  0
  1  2  2  0
  2  3  1  0
  3  4  1  0
  3  5  1  0
  5  6  1  0
  3  7  1  0
  7  8  1  0
  8  9  1  0
  9  7  1  0
  2 10  1  0
  4 11  1  0
  5 12  1  0
  5 13  1  0
  6 14  1  0
  7 15  1  0
  8 16  1  0
  8 17  1  0
  9 18  1  0
  9 19  1  0
M  END
