
     RDKit          3D

 12 14  0  0  0  0  0  0  0  0999 V2000
    1.9216    0.9366    1.6407 O   0  0  0  0  0  0  0  0  0  0  0  0
    1.7511    0.5408    0.4801 C   0  0  0  0  0  0  0  0  0  0  0  0
    0.4747    0.1239   -0.0128 C   0  0  0  0  0  0  0  0  0  0  0  0
    0.5339   -0.3032   -1.4273 O   0  0  0  0  0  0  0  0  0  0  0  0
   -0.4479    0.5504   -0.8964 C   0  0  0  0  0  0  0  0  0  0  0  0
   -1.5638   -0.2256   -0.2019 C   0  0  0  0  0  0  0  0  0  0  0  0
   -1.6976   -0.1459    1.1590 O   0  0  0  0  0  0  0  0  0  0  0  0
   -0.4935   -0.7052    0.7858 C   0  0  0  0  0  0  0  0  0  0  0  0
    2.6501    0.5397   -0.1217 H   0  0  0  0  0  0  0  0  0  0  0  0
   -0.6844    1.4669   -1.4292 H   0  0  0  0  0  0  0  0  0  0  0  0
   -2.0821   -0.9638   -0.8119 H   0  0  0  0  0  0  0  0  0  0  0  0
   -0.3622   -1.8146    0.8355 H   0  0  0  0  0  0  0  0  0  0  0  0
  1  2  2  0
  2  3  1  0
  3  4  1  0
  4  5  1  0
  5  6  1  0
  6  7  1  0
  7  8  1  0
  5  3  1  0
  8  6  1  0
  8  3  1  0
  2  9  1  0
  5 10  1  0
  6 11  1  0
  8 12  1  0
M  END
