
     RDKit          3D

 17 18  0  0  0  0  0  0  0  0999 V2000
    2.5634    2.0222   -0.5147 O   0  0  0  0  0  0  0  0  0  0  0  0
    2.3131    0.8069   -0.2998 C   0  0  0  0  0  0  0  0  0  0  0  0
    0.9413    0.3412   -0.2351 C   0  0  0  0  0  0  0  0  0  0  0  0
   -0.0198    1.2255   -0.4073 C   0  0  0  0  0  0  0  0  0  0  0  0
   -1.4153    0.7770   -0.3461 C   0  0  0  0  0  0  0  0  0  0  0  0
   -1.6539   -0.3790    0.5670 C   0  0  0  0  0  0  0  0  0  0  0  0
   -1.7524   -1.6175   -0.0804 O   0  0  0  0  0  0  0  0  0  0  0  0
   -0.6227   -1.3594    0.6952 C   0  0  0  0  0  0  0  0  0  0  0  0
    0.6853   -1.0978    0.0198 C   0  0  0  0  0  0  0  0  0  0  0  0
    3.1119    0.1106   -0.1637 H   0  0  0  0  0  0  0  0  0  0  0  0
    0.2192    2.2601   -0.5899 H   0  0  0  0  0  0  0  0  0  0  0  0
   -2.0401    1.6670   -0.0444 H   0  0  0  0  0  0  0  0  0  0  0  0
   -1.7240    0.5138   -1.3960 H   0  0  0  0  0  0  0  0  0  0  0  0
   -2.3341   -0.1751    1.4189 H   0  0  0  0  0  0  0  0  0  0  0  0
   -0.6010   -1.9788    1.6234 H   0  0  0  0  0  0  0  0  0  0  0  0
    0.8172   -1.6619   -0.9318 H   0  0  0  0  0  0  0  0  0  0  0  0
    1.5119   -1.4547    0.6848 H   0  0  0  0  0  0  0  0  0  0  0  0
  1  2  2  0
  2  3  1  0
  3  4  2  0
  4  5  1  0
  5  6  1  0
  6  7  1  0
  7  8  1  0
  8  9  1  0
  9  3  1  0
  8  6  1  0
  2 10  1  0
  4 11  1  0
  5 12  1  0
  5 13  1  0
  6 14  1  0
  8 15  1  0
  9 16  1  0
  9 17  1  0
M  END
