
     RDKit          3D

 19 20  0  0  0  0  0  0  0  0999 V2000
    2.6608    0.5669   -1.1446 O   0  0  0  0  0  0  0  0  0  0  0  0
    1.9527   -0.3271   -0.7325 C   0  0  0  0  0  0  0  0  0  0  0  0
    0.7360   -0.0497    0.0294 C   0  0  0  0  0  0  0  0  0  0  0  0
   -0.1084   -1.2231    0.3667 C   0  0  0  0  0  0  0  0  0  0  0  0
   -1.5150   -0.9041   -0.0137 C   0  0  0  0  0  0  0  0  0  0  0  0
   -1.5655    0.5056   -0.5006 C   0  0  0  0  0  0  0  0  0  0  0  0
   -0.1584    1.0389   -0.5086 C   0  0  0  0  0  0  0  0  0  0  0  0
    0.0520    1.8487    0.6035 O   0  0  0  0  0  0  0  0  0  0  0  0
    0.9798    0.9455    1.1326 C   0  0  0  0  0  0  0  0  0  0  0  0
    2.2377   -1.3461   -0.9392 H   0  0  0  0  0  0  0  0  0  0  0  0
   -0.0392   -1.5173    1.4525 H   0  0  0  0  0  0  0  0  0  0  0  0
    0.2111   -2.1353   -0.1912 H   0  0  0  0  0  0  0  0  0  0  0  0
   -2.1666   -1.0178    0.8969 H   0  0  0  0  0  0  0  0  0  0  0  0
   -1.8965   -1.5568   -0.8453 H   0  0  0  0  0  0  0  0  0  0  0  0
   -2.0207    0.5989   -1.5173 H   0  0  0  0  0  0  0  0  0  0  0  0
   -2.2332    1.1167    0.1738 H   0  0  0  0  0  0  0  0  0  0  0  0
    0.1619    1.4693   -1.4771 H   0  0  0  0  0  0  0  0  0  0  0  0
    0.7202    0.5692    2.1394 H   0  0  0  0  0  0  0  0  0  0  0  0
    1.9915    1.4175    1.0752 H   0  0  0  0  0  0  0  0  0  0  0  0
  1  2  2  0
  2  3  1  0
  3  4  1  0
  4  5  1  0
  5  6  1  0
  6  7  1  0
  7  8  1  0
  8  9  1  0
  7  3  1  0
  9  3  1  0
  2 10  1  0
  4 11  1  0
  4 12  1  0
  5 13  1  0
  5 14  1  0
  6 15  1  0
  6 16  1  0
  7 17  1  0
  9 18  1  0
  9 19  1  0
M  END
