
     RDKit          3D

 18 18  0  0  0  0  0  0  0  0999 V2000
   -1.7619   -1.9755    0.9214 O   0  0  0  0  0  0  0  0  0  0  0  0
   -0.7728   -1.2073    1.1030 C   0  0  0  0  0  0  0  0  0  0  0  0
   -0.5857   -0.1931    0.0364 C   0  0  0  0  0  0  0  0  0  0  0  0
    0.7040   -0.1736   -0.6782 C   0  0  0  0  0  0  0  0  0  0  0  0
    1.8902   -0.0495    0.1999 C   0  0  0  0  0  0  0  0  0  0  0  0
    1.9850    1.0684    0.9770 O   0  0  0  0  0  0  0  0  0  0  0  0
   -1.3347    1.1228    0.0460 C   0  0  0  0  0  0  0  0  0  0  0  0
   -1.8776    0.0255   -0.7991 C   0  0  0  0  0  0  0  0  0  0  0  0
   -0.2030   -1.3573    1.9687 H   0  0  0  0  0  0  0  0  0  0  0  0
    0.7780   -1.0528   -1.3605 H   0  0  0  0  0  0  0  0  0  0  0  0
    0.7007    0.7143   -1.3739 H   0  0  0  0  0  0  0  0  0  0  0  0
    1.8460   -0.9912    0.8781 H   0  0  0  0  0  0  0  0  0  0  0  0
    2.8433   -0.1715   -0.4364 H   0  0  0  0  0  0  0  0  0  0  0  0
    2.9698    1.3497    1.0004 H   0  0  0  0  0  0  0  0  0  0  0  0
   -0.8333    1.9909   -0.4362 H   0  0  0  0  0  0  0  0  0  0  0  0
   -1.8462    1.3459    0.9719 H   0  0  0  0  0  0  0  0  0  0  0  0
   -1.6832   -0.0773   -1.8627 H   0  0  0  0  0  0  0  0  0  0  0  0
   -2.8186   -0.3685   -0.4670 H   0  0  0  0  0  0  0  0  0  0  0  0
  1  2  2  0
  2  3  1  0
  3  4  1  0
  4  5  1  0
  5  6  1  0
  3  7  1  0
  7  8  1  0
  8  3  1  0
  2  9  1  0
  4 10  1  0
  4 11  1  0
  5 12  1  0
  5 13  1  0
  6 14  1  0
  7 15  1  0
  7 16  1  0
  8 17  1  0
  8 18  1  0
M  END
