
     RDKit          3D

 19 20  0  0  0  0  0  0  0  0999 V2000
    3.3033   -0.9880    0.5560 O   0  0  0  0  0  0  0  0  0  0  0  0
    2.1300   -1.0468    0.8311 C   0  0  0  0  0  0  0  0  0  0  0  0
    1.0588   -0.9779   -0.2081 C   0  0  0  0  0  0  0  0  0  0  0  0
    1.7343   -0.8417   -1.4450 O   0  0  0  0  0  0  0  0  0  0  0  0
    0.2840    0.2775   -0.0138 C   0  0  0  0  0  0  0  0  0  0  0  0
   -0.8416    0.6035   -0.9101 C   0  0  0  0  0  0  0  0  0  0  0  0
   -1.2953    1.5217    0.2074 C   0  0  0  0  0  0  0  0  0  0  0  0
   -0.9137    0.2295    0.9001 C   0  0  0  0  0  0  0  0  0  0  0  0
   -1.6539   -0.4314   -0.1899 C   0  0  0  0  0  0  0  0  0  0  0  0
    1.7830   -1.1542    1.8594 H   0  0  0  0  0  0  0  0  0  0  0  0
    0.4496   -1.8936   -0.2180 H   0  0  0  0  0  0  0  0  0  0  0  0
    1.9920    0.1115   -1.5206 H   0  0  0  0  0  0  0  0  0  0  0  0
    0.9269    1.1978    0.1328 H   0  0  0  0  0  0  0  0  0  0  0  0
   -0.8521    0.8171   -1.8864 H   0  0  0  0  0  0  0  0  0  0  0  0
   -2.3601    1.7478    0.1585 H   0  0  0  0  0  0  0  0  0  0  0  0
   -0.5981    2.3232    0.4704 H   0  0  0  0  0  0  0  0  0  0  0  0
   -0.9128    0.0656    1.8845 H   0  0  0  0  0  0  0  0  0  0  0  0
   -2.7342   -0.0928   -0.1660 H   0  0  0  0  0  0  0  0  0  0  0  0
   -1.5001   -1.4689   -0.4423 H   0  0  0  0  0  0  0  0  0  0  0  0
  1  2  2  0
  2  3  1  0
  3  4  1  0
  3  5  1  0
  5  6  1  0
  6  7  1  0
  7  8  1  0
  8  9  1  0
  8  5  1  0
  9  6  1  0
  2 10  1  0
  3 11  1  0
  4 12  1  0
  5 13  1  0
  6 14  1  0
  7 15  1  0
  7 16  1  0
  8 17  1  0
  9 18  1  0
  9 19  1  0
M  END
