
     RDKit          3D

 19 19  0  0  0  0  0  0  0  0999 V2000
    4.1359    0.0566   -0.5364 O   0  0  0  0  0  0  0  0  0  0  0  0
    3.0611   -0.4700   -0.3318 C   0  0  0  0  0  0  0  0  0  0  0  0
    1.8791    0.4109   -0.1016 C   0  0  0  0  0  0  0  0  0  0  0  0
    0.6923   -0.4786    0.1231 C   0  0  0  0  0  0  0  0  0  0  0  0
   -0.5848    0.2799    0.3711 C   0  0  0  0  0  0  0  0  0  0  0  0
   -1.6835   -0.7462    0.5784 C   0  0  0  0  0  0  0  0  0  0  0  0
   -2.6453   -0.4310   -0.3855 O   0  0  0  0  0  0  0  0  0  0  0  0
   -2.3861    0.9205   -0.6361 C   0  0  0  0  0  0  0  0  0  0  0  0
   -1.0093    0.9463   -0.7920 O   0  0  0  0  0  0  0  0  0  0  0  0
    2.9962   -1.5618   -0.3232 H   0  0  0  0  0  0  0  0  0  0  0  0
    1.7117    1.0472   -0.9941 H   0  0  0  0  0  0  0  0  0  0  0  0
    2.0593    1.0867    0.7690 H   0  0  0  0  0  0  0  0  0  0  0  0
    0.8538   -1.1439    0.9856 H   0  0  0  0  0  0  0  0  0  0  0  0
    0.5382   -1.0748   -0.8016 H   0  0  0  0  0  0  0  0  0  0  0  0
   -0.5073    0.9638    1.2275 H   0  0  0  0  0  0  0  0  0  0  0  0
   -2.0944   -0.6889    1.6055 H   0  0  0  0  0  0  0  0  0  0  0  0
   -1.3365   -1.7819    0.3251 H   0  0  0  0  0  0  0  0  0  0  0  0
   -2.7515    1.4975    0.2242 H   0  0  0  0  0  0  0  0  0  0  0  0
   -2.9292    1.1678   -1.5850 H   0  0  0  0  0  0  0  0  0  0  0  0
  1  2  2  0
  2  3  1  0
  3  4  1  0
  4  5  1  0
  5  6  1  0
  6  7  1  0
  7  8  1  0
  8  9  1  0
  9  5  1  0
  2 10  1  0
  3 11  1  0
  3 12  1  0
  4 13  1  0
  4 14  1  0
  5 15  1  0
  6 16  1  0
  6 17  1  0
  8 18  1  0
  8 19  1  0
M  END
