
     RDKit          3D

 19 20  0  0  0  0  0  0  0  0999 V2000
    2.2172   -0.0637   -1.9712 O   0  0  0  0  0  0  0  0  0  0  0  0
    2.2689   -0.2643   -0.7715 C   0  0  0  0  0  0  0  0  0  0  0  0
    0.9901   -0.1412   -0.0162 C   0  0  0  0  0  0  0  0  0  0  0  0
    0.1104   -1.3582   -0.0042 C   0  0  0  0  0  0  0  0  0  0  0  0
   -1.3125   -0.9067   -0.0563 C   0  0  0  0  0  0  0  0  0  0  0  0
   -1.3184    0.5830   -0.1969 C   0  0  0  0  0  0  0  0  0  0  0  0
   -1.8508    1.2099    0.9524 O   0  0  0  0  0  0  0  0  0  0  0  0
    0.1106    1.0045   -0.3062 C   0  0  0  0  0  0  0  0  0  0  0  0
    0.8845    0.9227    0.9814 C   0  0  0  0  0  0  0  0  0  0  0  0
    3.1735   -0.5203   -0.2433 H   0  0  0  0  0  0  0  0  0  0  0  0
    0.3731   -1.9842   -0.9024 H   0  0  0  0  0  0  0  0  0  0  0  0
    0.3444   -2.0015    0.8725 H   0  0  0  0  0  0  0  0  0  0  0  0
   -1.8604   -1.2640    0.8502 H   0  0  0  0  0  0  0  0  0  0  0  0
   -1.8205   -1.3185   -0.9770 H   0  0  0  0  0  0  0  0  0  0  0  0
   -1.9479    0.9430   -1.0386 H   0  0  0  0  0  0  0  0  0  0  0  0
   -2.8316    1.0346    0.9621 H   0  0  0  0  0  0  0  0  0  0  0  0
    0.4302    1.6796   -1.1146 H   0  0  0  0  0  0  0  0  0  0  0  0
    0.3128    0.8122    1.9354 H   0  0  0  0  0  0  0  0  0  0  0  0
    1.7262    1.6333    1.0446 H   0  0  0  0  0  0  0  0  0  0  0  0
  1  2  2  0
  2  3  1  0
  3  4  1  0
  4  5  1  0
  5  6  1  0
  6  7  1  0
  6  8  1  0
  8  9  1  0
  8  3  1  0
  9  3  1  0
  2 10  1  0
  4 11  1  0
  4 12  1  0
  5 13  1  0
  5 14  1  0
  6 15  1  0
  7 16  1  0
  8 17  1  0
  9 18  1  0
  9 19  1  0
M  END
