
     RDKit          3D

 17 19  0  0  0  0  0  0  0  0999 V2000
    2.9844    0.7546    0.3638 O   0  0  0  0  0  0  0  0  0  0  0  0
    2.0986   -0.0732    0.4053 C   0  0  0  0  0  0  0  0  0  0  0  0
    0.7044    0.3863    0.4320 C   0  0  0  0  0  0  0  0  0  0  0  0
    0.0199    0.4370   -0.9439 C   0  0  0  0  0  0  0  0  0  0  0  0
   -0.0867   -1.0677   -0.7795 C   0  0  0  0  0  0  0  0  0  0  0  0
   -0.3245   -0.7051    0.6802 C   0  0  0  0  0  0  0  0  0  0  0  0
   -1.6060    0.0763    0.6611 C   0  0  0  0  0  0  0  0  0  0  0  0
   -2.3995    0.1177   -0.4509 O   0  0  0  0  0  0  0  0  0  0  0  0
   -1.3236    0.9790   -0.5582 C   0  0  0  0  0  0  0  0  0  0  0  0
    2.3787   -1.1158    0.4207 H   0  0  0  0  0  0  0  0  0  0  0  0
    0.4790    1.2784    1.0391 H   0  0  0  0  0  0  0  0  0  0  0  0
    0.5655    0.8381   -1.7527 H   0  0  0  0  0  0  0  0  0  0  0  0
    0.9096   -1.5298   -0.9324 H   0  0  0  0  0  0  0  0  0  0  0  0
   -0.9348   -1.5389   -1.2808 H   0  0  0  0  0  0  0  0  0  0  0  0
   -0.1380   -1.4295    1.4256 H   0  0  0  0  0  0  0  0  0  0  0  0
   -1.9137    0.5489    1.5968 H   0  0  0  0  0  0  0  0  0  0  0  0
   -1.4132    2.0437   -0.3262 H   0  0  0  0  0  0  0  0  0  0  0  0
  1  2  2  0
  2  3  1  0
  3  4  1  0
  4  5  1  0
  5  6  1  0
  6  7  1  0
  7  8  1  0
  8  9  1  0
  6  3  1  0
  9  7  1  0
  9  4  1  0
  2 10  1  0
  3 11  1  0
  4 12  1  0
  5 13  1  0
  5 14  1  0
  6 15  1  0
  7 16  1  0
  9 17  1  0
M  END
