
     RDKit          3D

 21 22  0  0  0  0  0  0  0  0999 V2000
    3.0401    1.3664   -0.4043 O   0  0  0  0  0  0  0  0  0  0  0  0
    1.8706    1.4950   -0.6750 C   0  0  0  0  0  0  0  0  0  0  0  0
    0.8627    0.7182    0.0543 C   0  0  0  0  0  0  0  0  0  0  0  0
    1.2004   -0.7526    0.1306 C   0  0  0  0  0  0  0  0  0  0  0  0
    0.0439   -1.4387    0.8314 C   0  0  0  0  0  0  0  0  0  0  0  0
   -1.2605   -0.9010    0.3107 C   0  0  0  0  0  0  0  0  0  0  0  0
   -1.4683    0.5584    0.7339 C   0  0  0  0  0  0  0  0  0  0  0  0
   -0.5320    0.8990   -0.4376 C   0  0  0  0  0  0  0  0  0  0  0  0
   -1.0864   -0.3586   -1.1103 C   0  0  0  0  0  0  0  0  0  0  0  0
    1.5869    2.1768   -1.4464 H   0  0  0  0  0  0  0  0  0  0  0  0
    0.8783    1.0872    1.1220 H   0  0  0  0  0  0  0  0  0  0  0  0
    1.4317   -1.1982   -0.8518 H   0  0  0  0  0  0  0  0  0  0  0  0
    2.1280   -0.8725    0.7446 H   0  0  0  0  0  0  0  0  0  0  0  0
    0.1818   -1.2448    1.9235 H   0  0  0  0  0  0  0  0  0  0  0  0
    0.0401   -2.5315    0.6679 H   0  0  0  0  0  0  0  0  0  0  0  0
   -2.1555   -1.4844    0.4858 H   0  0  0  0  0  0  0  0  0  0  0  0
   -1.0612    0.8096    1.7139 H   0  0  0  0  0  0  0  0  0  0  0  0
   -2.4723    0.8997    0.4809 H   0  0  0  0  0  0  0  0  0  0  0  0
   -0.7821    1.8116   -0.9703 H   0  0  0  0  0  0  0  0  0  0  0  0
   -0.3838   -0.9034   -1.7348 H   0  0  0  0  0  0  0  0  0  0  0  0
   -2.0623   -0.1363   -1.5690 H   0  0  0  0  0  0  0  0  0  0  0  0
  1  2  2  0
  2  3  1  0
  3  4  1  0
  4  5  1  0
  5  6  1  0
  6  7  1  0
  7  8  1  0
  8  9  1  0
  8  3  1  0
  9  6  1  0
  2 10  1  0
  3 11  1  0
  4 12  1  0
  4 13  1  0
  5 14  1  0
  5 15  1  0
  6 16  1  0
  7 17  1  0
  7 18  1  0
  8 19  1  0
  9 20  1  0
  9 21  1  0
M  END
