
     RDKit          3D

 17 17  0  0  0  0  0  0  0  0999 V2000
   -1.4780    0.2886   -2.0380 O   0  0  0  0  0  0  0  0  0  0  0  0
   -1.2714   -0.4423   -1.0955 C   0  0  0  0  0  0  0  0  0  0  0  0
   -0.5493    0.0715    0.0785 C   0  0  0  0  0  0  0  0  0  0  0  0
   -1.4749    0.7191    1.0267 C   0  0  0  0  0  0  0  0  0  0  0  0
   -1.0498    1.1372    2.0729 O   0  0  0  0  0  0  0  0  0  0  0  0
    0.2468   -1.0415    0.7121 C   0  0  0  0  0  0  0  0  0  0  0  0
    1.5693   -0.9134    0.0416 C   0  0  0  0  0  0  0  0  0  0  0  0
    1.7002    0.2641   -0.5191 C   0  0  0  0  0  0  0  0  0  0  0  0
    0.4853    1.1165   -0.3149 C   0  0  0  0  0  0  0  0  0  0  0  0
   -1.6114   -1.4516   -1.1180 H   0  0  0  0  0  0  0  0  0  0  0  0
   -2.5096    0.8096    0.7752 H   0  0  0  0  0  0  0  0  0  0  0  0
    0.3990   -0.9122    1.7957 H   0  0  0  0  0  0  0  0  0  0  0  0
   -0.1591   -2.0491    0.4515 H   0  0  0  0  0  0  0  0  0  0  0  0
    2.3616   -1.6762   -0.0038 H   0  0  0  0  0  0  0  0  0  0  0  0
    2.5661    0.6327   -1.0788 H   0  0  0  0  0  0  0  0  0  0  0  0
    0.6369    1.8741    0.4812 H   0  0  0  0  0  0  0  0  0  0  0  0
    0.1383    1.5729   -1.2673 H   0  0  0  0  0  0  0  0  0  0  0  0
  1  2  2  0
  2  3  1  0
  3  4  1  0
  4  5  2  0
  3  6  1  0
  6  7  1  0
  7  8  2  0
  8  9  1  0
  9  3  1  0
  2 10  1  0
  4 11  1  0
  6 12  1  0
  6 13  1  0
  7 14  1  0
  8 15  1  0
  9 16  1  0
  9 17  1  0
M  END
