
     RDKit          3D

 15 16  0  0  0  0  0  0  0  0999 V2000
   -2.2869   -1.0566   -0.5667 O   0  0  0  0  0  0  0  0  0  0  0  0
   -1.2586   -1.0180    0.0894 C   0  0  0  0  0  0  0  0  0  0  0  0
   -0.6024    0.3142    0.3791 C   0  0  0  0  0  0  0  0  0  0  0  0
   -0.6569    1.2335   -0.6758 C   0  0  0  0  0  0  0  0  0  0  0  0
    0.6217    0.6752   -0.5691 C   0  0  0  0  0  0  0  0  0  0  0  0
    1.1833   -0.6863   -0.4260 C   0  0  0  0  0  0  0  0  0  0  0  0
    1.2088   -0.7889    1.0155 O   0  0  0  0  0  0  0  0  0  0  0  0
    0.2914    0.1645    1.5326 C   0  0  0  0  0  0  0  0  0  0  0  0
    0.2936    0.6916    2.6570 O   0  0  0  0  0  0  0  0  0  0  0  0
   -0.8808   -1.9720    0.4260 H   0  0  0  0  0  0  0  0  0  0  0  0
   -0.8498    2.3137   -0.4119 H   0  0  0  0  0  0  0  0  0  0  0  0
   -1.2584    0.9995   -1.6001 H   0  0  0  0  0  0  0  0  0  0  0  0
    1.3902    1.3891   -0.1328 H   0  0  0  0  0  0  0  0  0  0  0  0
    0.5917   -1.4861   -0.8890 H   0  0  0  0  0  0  0  0  0  0  0  0
    2.2131   -0.7734   -0.8282 H   0  0  0  0  0  0  0  0  0  0  0  0
  1  2  2  0
  2  3  1  0
  3  4  1  0
  4  5  1  0
  5  6  1  0
  6  7  1  0
  7  8  1  0
  8  9  2  0
  5  3  1  0
  8  3  1  0
  2 10  1  0
  4 11  1  0
  4 12  1  0
  5 13  1  0
  6 14  1  0
  6 15  1  0
M  END
