
     RDKit          3D

 19 21  0  0  0  0  0  0  0  0999 V2000
    2.8009   -1.1876    0.4731 O   0  0  0  0  0  0  0  0  0  0  0  0
    1.6071   -1.4091    0.5776 C   0  0  0  0  0  0  0  0  0  0  0  0
    0.6309   -0.4543    0.1796 C   0  0  0  0  0  0  0  0  0  0  0  0
    0.9756    0.4774   -0.9949 C   0  0  0  0  0  0  0  0  0  0  0  0
   -0.1310    1.3340   -0.3540 C   0  0  0  0  0  0  0  0  0  0  0  0
    0.4697    0.8277    0.9561 C   0  0  0  0  0  0  0  0  0  0  0  0
   -1.3445    0.5127   -0.5773 C   0  0  0  0  0  0  0  0  0  0  0  0
   -1.9502   -0.3552    0.4389 C   0  0  0  0  0  0  0  0  0  0  0  0
   -0.7475   -0.8954   -0.2216 C   0  0  0  0  0  0  0  0  0  0  0  0
    1.2995   -2.3823    0.9945 H   0  0  0  0  0  0  0  0  0  0  0  0
    1.9901    0.9405   -0.8967 H   0  0  0  0  0  0  0  0  0  0  0  0
    0.7299    0.0827   -1.9772 H   0  0  0  0  0  0  0  0  0  0  0  0
   -0.1094    2.3766   -0.5456 H   0  0  0  0  0  0  0  0  0  0  0  0
   -0.1819    0.8251    1.8169 H   0  0  0  0  0  0  0  0  0  0  0  0
    1.4360    1.3276    1.1161 H   0  0  0  0  0  0  0  0  0  0  0  0
   -1.8110    0.6130   -1.5634 H   0  0  0  0  0  0  0  0  0  0  0  0
   -2.9100   -0.8524    0.1148 H   0  0  0  0  0  0  0  0  0  0  0  0
   -1.9297   -0.1748    1.5133 H   0  0  0  0  0  0  0  0  0  0  0  0
   -0.8246   -1.6060   -1.0502 H   0  0  0  0  0  0  0  0  0  0  0  0
  1  2  2  0
  2  3  1  0
  3  4  1  0
  4  5  1  0
  5  6  1  0
  5  7  1  0
  7  8  1  0
  8  9  1  0
  6  3  1  0
  9  7  1  0
  9  3  1  0
  2 10  1  0
  4 11  1  0
  4 12  1  0
  5 13  1  0
  6 14  1  0
  6 15  1  0
  7 16  1  0
  8 17  1  0
  8 18  1  0
  9 19  1  0
M  END
