
     RDKit          3D

 17 18  0  0  0  0  0  0  0  0999 V2000
    2.4790   -1.5502    0.2291 O   0  0  0  0  0  0  0  0  0  0  0  0
    1.4485   -1.0028    0.5655 C   0  0  0  0  0  0  0  0  0  0  0  0
    0.7596   -0.0894   -0.3866 C   0  0  0  0  0  0  0  0  0  0  0  0
    1.4248    0.0177   -1.5936 O   0  0  0  0  0  0  0  0  0  0  0  0
    0.5392    1.2474    0.3262 C   0  0  0  0  0  0  0  0  0  0  0  0
   -0.7829    0.6296    0.7395 C   0  0  0  0  0  0  0  0  0  0  0  0
   -1.7719    0.6048   -0.3524 C   0  0  0  0  0  0  0  0  0  0  0  0
   -0.6951   -0.3741   -0.4379 C   0  0  0  0  0  0  0  0  0  0  0  0
   -1.0383   -1.6997   -0.1678 O   0  0  0  0  0  0  0  0  0  0  0  0
    1.0683   -1.2047    1.5578 H   0  0  0  0  0  0  0  0  0  0  0  0
    2.3926   -0.1598   -1.4971 H   0  0  0  0  0  0  0  0  0  0  0  0
    1.2461    1.4612    1.1254 H   0  0  0  0  0  0  0  0  0  0  0  0
    0.4114    2.0774   -0.4147 H   0  0  0  0  0  0  0  0  0  0  0  0
   -0.8958    0.1389    1.6954 H   0  0  0  0  0  0  0  0  0  0  0  0
   -1.8124    1.5346   -0.9712 H   0  0  0  0  0  0  0  0  0  0  0  0
   -2.7802    0.2523   -0.0641 H   0  0  0  0  0  0  0  0  0  0  0  0
   -1.9931   -1.8833   -0.3535 H   0  0  0  0  0  0  0  0  0  0  0  0
  1  2  2  0
  2  3  1  0
  3  4  1  0
  3  5  1  0
  5  6  1  0
  6  7  1  0
  7  8  1  0
  8  9  1  0
  8  3  1  0
  8  6  1  0
  2 10  1  0
  4 11  1  0
  5 12  1  0
  5 13  1  0
  6 14  1  0
  7 15  1  0
  7 16  1  0
  9 17  1  0
M  END
