
     RDKit          3D

 17 18  0  0  0  0  0  0  0  0999 V2000
    3.0217    0.0798   -0.4734 O   0  0  0  0  0  0  0  0  0  0  0  0
    2.2158   -0.7794   -0.0210 C   0  0  0  0  0  0  0  0  0  0  0  0
    0.8105   -0.4942   -0.1386 C   0  0  0  0  0  0  0  0  0  0  0  0
   -0.1357   -1.3409    0.3102 C   0  0  0  0  0  0  0  0  0  0  0  0
   -1.5807   -1.0592    0.1950 C   0  0  0  0  0  0  0  0  0  0  0  0
   -1.8764    0.2637   -0.1639 O   0  0  0  0  0  0  0  0  0  0  0  0
   -0.8749    1.0324    0.2973 C   0  0  0  0  0  0  0  0  0  0  0  0
   -0.0199    2.0003   -0.2693 C   0  0  0  0  0  0  0  0  0  0  0  0
    0.2677    0.7040   -0.7357 C   0  0  0  0  0  0  0  0  0  0  0  0
    2.5963   -1.6894    0.4341 H   0  0  0  0  0  0  0  0  0  0  0  0
    0.1445   -2.2724    0.7786 H   0  0  0  0  0  0  0  0  0  0  0  0
   -2.1139   -1.7946   -0.4385 H   0  0  0  0  0  0  0  0  0  0  0  0
   -2.0007   -1.1621    1.2371 H   0  0  0  0  0  0  0  0  0  0  0  0
   -0.6584    0.7719    1.3789 H   0  0  0  0  0  0  0  0  0  0  0  0
   -0.4516    2.7498   -0.9821 H   0  0  0  0  0  0  0  0  0  0  0  0
    0.7313    2.5238    0.3808 H   0  0  0  0  0  0  0  0  0  0  0  0
   -0.0755    0.4666   -1.7895 H   0  0  0  0  0  0  0  0  0  0  0  0
  1  2  2  0
  2  3  1  0
  3  4  2  0
  4  5  1  0
  5  6  1  0
  6  7  1  0
  7  8  1  0
  8  9  1  0
  9  3  1  0
  9  7  1  0
  2 10  1  0
  4 11  1  0
  5 12  1  0
  5 13  1  0
  7 14  1  0
  8 15  1  0
  8 16  1  0
  9 17  1  0
M  END
