
     RDKit          3D

 19 19  0  0  0  0  0  0  0  0999 V2000
    3.2589    0.1034   -0.0326 O   0  0  0  0  0  0  0  0  0  0  0  0
    2.6170   -0.9166    0.1412 C   0  0  0  0  0  0  0  0  0  0  0  0
    1.1332   -0.8715    0.1720 C   0  0  0  0  0  0  0  0  0  0  0  0
    0.6847    0.5305   -0.0331 C   0  0  0  0  0  0  0  0  0  0  0  0
   -0.7766    0.7633   -0.0356 C   0  0  0  0  0  0  0  0  0  0  0  0
   -1.1300    2.0810   -0.2295 O   0  0  0  0  0  0  0  0  0  0  0  0
   -1.6162   -0.1378   -0.9046 C   0  0  0  0  0  0  0  0  0  0  0  0
   -2.6150   -0.0274    0.0935 O   0  0  0  0  0  0  0  0  0  0  0  0
   -1.5353    0.0159    1.0082 C   0  0  0  0  0  0  0  0  0  0  0  0
    3.1569   -1.8487    0.2714 H   0  0  0  0  0  0  0  0  0  0  0  0
    0.8476   -1.1919    1.2139 H   0  0  0  0  0  0  0  0  0  0  0  0
    0.7275   -1.5639   -0.5782 H   0  0  0  0  0  0  0  0  0  0  0  0
    1.1277    0.9081   -0.9726 H   0  0  0  0  0  0  0  0  0  0  0  0
    1.1254    1.1688    0.7795 H   0  0  0  0  0  0  0  0  0  0  0  0
   -0.8527    2.3115   -1.1716 H   0  0  0  0  0  0  0  0  0  0  0  0
   -1.9507    0.3271   -1.8342 H   0  0  0  0  0  0  0  0  0  0  0  0
   -1.2658   -1.1824   -0.9527 H   0  0  0  0  0  0  0  0  0  0  0  0
   -1.1726   -1.0237    1.1194 H   0  0  0  0  0  0  0  0  0  0  0  0
   -1.7639    0.5543    1.9455 H   0  0  0  0  0  0  0  0  0  0  0  0
  1  2  2  0
  2  3  1  0
  3  4  1  0
  4  5  1  0
  5  6  1  0
  5  7  1  0
  7  8  1  0
  8  9  1  0
  9  5  1  0
  2 10  1  0
  3 11  1  0
  3 12  1  0
  4 13  1  0
  4 14  1  0
  6 15  1  0
  7 16  1  0
  7 17  1  0
  9 18  1  0
  9 19  1  0
M  END
