
     RDKit          3D

 17 18  0  0  0  0  0  0  0  0999 V2000
   -2.7687    0.5220    0.9781 O   0  0  0  0  0  0  0  0  0  0  0  0
   -1.9238    0.7374    0.1499 C   0  0  0  0  0  0  0  0  0  0  0  0
   -1.2886   -0.3587   -0.6233 C   0  0  0  0  0  0  0  0  0  0  0  0
   -1.7834   -1.6081   -0.2727 O   0  0  0  0  0  0  0  0  0  0  0  0
    0.1818   -0.2282   -0.4802 C   0  0  0  0  0  0  0  0  0  0  0  0
    0.8089    1.0788   -0.0437 C   0  0  0  0  0  0  0  0  0  0  0  0
    1.9904    0.2408    0.4632 C   0  0  0  0  0  0  0  0  0  0  0  0
    1.1401   -0.9855    0.0982 C   0  0  0  0  0  0  0  0  0  0  0  0
    0.9313   -1.1125   -1.2505 O   0  0  0  0  0  0  0  0  0  0  0  0
   -1.5904    1.7401   -0.0671 H   0  0  0  0  0  0  0  0  0  0  0  0
   -1.6090   -0.2002   -1.6959 H   0  0  0  0  0  0  0  0  0  0  0  0
   -1.6502   -1.8428    0.6604 H   0  0  0  0  0  0  0  0  0  0  0  0
    1.1592    1.7400   -0.8387 H   0  0  0  0  0  0  0  0  0  0  0  0
    0.2816    1.5335    0.8075 H   0  0  0  0  0  0  0  0  0  0  0  0
    2.8675    0.2475   -0.2135 H   0  0  0  0  0  0  0  0  0  0  0  0
    2.1809    0.3081    1.5316 H   0  0  0  0  0  0  0  0  0  0  0  0
    1.0722   -1.8121    0.7967 H   0  0  0  0  0  0  0  0  0  0  0  0
  1  2  2  0
  2  3  1  0
  3  4  1  0
  3  5  1  0
  5  6  1  0
  6  7  1  0
  7  8  1  0
  8  9  1  0
  8  5  1  0
  9  5  1  0
  2 10  1  0
  3 11  1  0
  4 12  1  0
  6 13  1  0
  6 14  1  0
  7 15  1  0
  7 16  1  0
  8 17  1  0
M  END
