
     RDKit          3D

 19 19  0  0  0  0  0  0  0  0999 V2000
    3.4627    1.4833   -0.1249 O   0  0  0  0  0  0  0  0  0  0  0  0
    2.7322    0.7087   -0.7066 C   0  0  0  0  0  0  0  0  0  0  0  0
    1.7462   -0.1015   -0.0106 C   0  0  0  0  0  0  0  0  0  0  0  0
    1.7685    0.1390    1.3720 O   0  0  0  0  0  0  0  0  0  0  0  0
    0.3075    0.1977   -0.4444 C   0  0  0  0  0  0  0  0  0  0  0  0
   -0.5391   -0.7596    0.4091 C   0  0  0  0  0  0  0  0  0  0  0  0
   -1.9977   -0.6165    0.1261 C   0  0  0  0  0  0  0  0  0  0  0  0
   -2.7234    0.6580    0.3256 C   0  0  0  0  0  0  0  0  0  0  0  0
   -2.3896    0.1443   -0.9603 O   0  0  0  0  0  0  0  0  0  0  0  0
    2.8326    0.6322   -1.7779 H   0  0  0  0  0  0  0  0  0  0  0  0
    1.8787   -1.2000   -0.1532 H   0  0  0  0  0  0  0  0  0  0  0  0
    1.8289   -0.6974    1.8907 H   0  0  0  0  0  0  0  0  0  0  0  0
    0.1569   -0.0211   -1.5048 H   0  0  0  0  0  0  0  0  0  0  0  0
    0.0237    1.2422   -0.2025 H   0  0  0  0  0  0  0  0  0  0  0  0
   -0.2332   -1.7997    0.1677 H   0  0  0  0  0  0  0  0  0  0  0  0
   -0.3692   -0.5792    1.4748 H   0  0  0  0  0  0  0  0  0  0  0  0
   -2.5855   -1.5559    0.3396 H   0  0  0  0  0  0  0  0  0  0  0  0
   -2.1215    1.5178    0.6576 H   0  0  0  0  0  0  0  0  0  0  0  0
   -3.7786    0.6079    0.6391 H   0  0  0  0  0  0  0  0  0  0  0  0
  1  2  2  0
  2  3  1  0
  3  4  1  0
  3  5  1  0
  5  6  1  0
  6  7  1  0
  7  8  1  0
  8  9  1  0
  9  7  1  0
  2 10  1  0
  3 11  1  0
  4 12  1  0
  5 13  1  0
  5 14  1  0
  6 15  1  0
  6 16  1  0
  7 17  1  0
  8 18  1  0
  8 19  1  0
M  END
