
     RDKit          3D

 17 18  0  0  0  0  0  0  0  0999 V2000
    3.4175    0.7533    0.4189 O   0  0  0  0  0  0  0  0  0  0  0  0
    2.2454    1.1277    0.1783 C   0  0  0  0  0  0  0  0  0  0  0  0
    1.1249    0.2122    0.0475 C   0  0  0  0  0  0  0  0  0  0  0  0
   -0.1251    0.4947   -0.2001 C   0  0  0  0  0  0  0  0  0  0  0  0
   -1.4609    1.0395   -0.4830 C   0  0  0  0  0  0  0  0  0  0  0  0
   -1.9513   -0.1319    0.4098 C   0  0  0  0  0  0  0  0  0  0  0  0
   -0.8303   -0.8535   -0.2840 C   0  0  0  0  0  0  0  0  0  0  0  0
   -0.0350   -1.7080    0.4465 O   0  0  0  0  0  0  0  0  0  0  0  0
    1.2829   -1.2808    0.2236 C   0  0  0  0  0  0  0  0  0  0  0  0
    2.0587    2.1947    0.0615 H   0  0  0  0  0  0  0  0  0  0  0  0
   -1.7397    0.8675   -1.5257 H   0  0  0  0  0  0  0  0  0  0  0  0
   -1.7003    2.0279   -0.0700 H   0  0  0  0  0  0  0  0  0  0  0  0
   -1.8227    0.0759    1.4704 H   0  0  0  0  0  0  0  0  0  0  0  0
   -2.9729   -0.4138    0.1327 H   0  0  0  0  0  0  0  0  0  0  0  0
   -1.0886   -1.1461   -1.3045 H   0  0  0  0  0  0  0  0  0  0  0  0
    1.8518   -1.5180    1.1364 H   0  0  0  0  0  0  0  0  0  0  0  0
    1.7456   -1.7413   -0.6582 H   0  0  0  0  0  0  0  0  0  0  0  0
  1  2  2  0
  2  3  1  0
  3  4  2  0
  4  5  1  0
  5  6  1  0
  6  7  1  0
  7  8  1  0
  8  9  1  0
  9  3  1  0
  7  4  1  0
  2 10  1  0
  5 11  1  0
  5 12  1  0
  6 13  1  0
  6 14  1  0
  7 15  1  0
  9 16  1  0
  9 17  1  0
M  END
