
     RDKit          3D

 16 17  0  0  0  0  0  0  0  0999 V2000
    2.2712    1.2227    0.7896 O   0  0  0  0  0  0  0  0  0  0  0  0
    2.0919    0.4542   -0.1424 C   0  0  0  0  0  0  0  0  0  0  0  0
    1.2154   -0.7385    0.0898 C   0  0  0  0  0  0  0  0  0  0  0  0
   -0.1266   -0.4226    0.0767 C   0  0  0  0  0  0  0  0  0  0  0  0
   -0.8538    0.5214    0.9670 C   0  0  0  0  0  0  0  0  0  0  0  0
   -1.8676   -0.1316    0.0837 C   0  0  0  0  0  0  0  0  0  0  0  0
   -0.9269    0.0991   -1.0596 C   0  0  0  0  0  0  0  0  0  0  0  0
   -1.1783   -1.3171    0.3036 O   0  0  0  0  0  0  0  0  0  0  0  0
    2.5646    0.6536   -1.0971 H   0  0  0  0  0  0  0  0  0  0  0  0
    1.5177   -1.4737   -0.6995 H   0  0  0  0  0  0  0  0  0  0  0  0
    1.5752   -1.1857    1.0426 H   0  0  0  0  0  0  0  0  0  0  0  0
   -0.6805    1.6049    0.8079 H   0  0  0  0  0  0  0  0  0  0  0  0
   -0.9203    0.2093    2.0138 H   0  0  0  0  0  0  0  0  0  0  0  0
   -2.8676   -0.0007    0.0905 H   0  0  0  0  0  0  0  0  0  0  0  0
   -1.0635   -0.6266   -1.8993 H   0  0  0  0  0  0  0  0  0  0  0  0
   -0.7509    1.1313   -1.3674 H   0  0  0  0  0  0  0  0  0  0  0  0
  1  2  2  0
  2  3  1  0
  3  4  1  0
  4  5  1  0
  5  6  1  0
  6  7  1  0
  6  8  1  0
  7  4  1  0
  8  4  1  0
  2  9  1  0
  3 10  1  0
  3 11  1  0
  5 12  1  0
  5 13  1  0
  6 14  1  0
  7 15  1  0
  7 16  1  0
M  END
