
     RDKit          3D

 19 20  0  0  0  0  0  0  0  0999 V2000
    2.3639   -1.5736   -0.3831 O   0  0  0  0  0  0  0  0  0  0  0  0
    2.5844   -0.4061   -0.5744 C   0  0  0  0  0  0  0  0  0  0  0  0
    1.5358    0.6091   -0.1714 C   0  0  0  0  0  0  0  0  0  0  0  0
    0.3516   -0.0633    0.4241 C   0  0  0  0  0  0  0  0  0  0  0  0
   -0.7999    0.7057    0.8998 C   0  0  0  0  0  0  0  0  0  0  0  0
   -1.5908   -0.5789    0.6909 C   0  0  0  0  0  0  0  0  0  0  0  0
   -0.7336   -0.4510   -0.5505 C   0  0  0  0  0  0  0  0  0  0  0  0
   -0.6527   -1.2426   -1.5136 O   0  0  0  0  0  0  0  0  0  0  0  0
   -1.1743    0.9688   -0.5204 C   0  0  0  0  0  0  0  0  0  0  0  0
    3.4771    0.0044   -1.0157 H   0  0  0  0  0  0  0  0  0  0  0  0
    1.2406    1.1148   -1.1100 H   0  0  0  0  0  0  0  0  0  0  0  0
    2.0172    1.3008    0.5518 H   0  0  0  0  0  0  0  0  0  0  0  0
    0.6193   -0.8825    1.1307 H   0  0  0  0  0  0  0  0  0  0  0  0
   -0.9062    1.3169    1.6888 H   0  0  0  0  0  0  0  0  0  0  0  0
   -2.6415   -0.3742    0.4320 H   0  0  0  0  0  0  0  0  0  0  0  0
   -1.3672   -1.3978    1.3641 H   0  0  0  0  0  0  0  0  0  0  0  0
   -1.3897   -1.8292   -1.7124 H   0  0  0  0  0  0  0  0  0  0  0  0
   -2.2925    1.0539   -0.5743 H   0  0  0  0  0  0  0  0  0  0  0  0
   -0.6414    1.7246   -1.0852 H   0  0  0  0  0  0  0  0  0  0  0  0
  1  2  2  0
  2  3  1  0
  3  4  1  0
  4  5  1  0
  5  6  1  0
  6  7  1  0
  7  8  1  0
  7  9  1  0
  7  4  1  0
  9  5  1  0
  2 10  1  0
  3 11  1  0
  3 12  1  0
  4 13  1  0
  5 14  1  0
  6 15  1  0
  6 16  1  0
  8 17  1  0
  9 18  1  0
  9 19  1  0
M  END
