
     RDKit          3D

 17 17  0  0  0  0  0  0  0  0999 V2000
   -2.4397   -1.3187   -0.6723 O   0  0  0  0  0  0  0  0  0  0  0  0
   -1.7536   -1.2308    0.3249 C   0  0  0  0  0  0  0  0  0  0  0  0
   -0.5865   -0.3495    0.3359 C   0  0  0  0  0  0  0  0  0  0  0  0
    0.6128   -0.9135   -0.3872 C   0  0  0  0  0  0  0  0  0  0  0  0
    1.8321   -0.1462    0.1210 C   0  0  0  0  0  0  0  0  0  0  0  0
    1.6235    1.2357   -0.0525 O   0  0  0  0  0  0  0  0  0  0  0  0
    0.3611    1.8247   -0.0112 C   0  0  0  0  0  0  0  0  0  0  0  0
    0.2692    3.0244    0.2769 O   0  0  0  0  0  0  0  0  0  0  0  0
   -0.8728    1.0115   -0.3131 C   0  0  0  0  0  0  0  0  0  0  0  0
   -2.0195   -1.8075    1.1882 H   0  0  0  0  0  0  0  0  0  0  0  0
   -0.2442   -0.1066    1.3835 H   0  0  0  0  0  0  0  0  0  0  0  0
    0.5613   -0.7109   -1.4916 H   0  0  0  0  0  0  0  0  0  0  0  0
    0.7046   -1.9823   -0.1650 H   0  0  0  0  0  0  0  0  0  0  0  0
    1.9781   -0.4314    1.1707 H   0  0  0  0  0  0  0  0  0  0  0  0
    2.7216   -0.4167   -0.5095 H   0  0  0  0  0  0  0  0  0  0  0  0
   -0.9868    0.8968   -1.3986 H   0  0  0  0  0  0  0  0  0  0  0  0
   -1.7611    1.4211    0.1998 H   0  0  0  0  0  0  0  0  0  0  0  0
  1  2  2  0
  2  3  1  0
  3  4  1  0
  4  5  1  0
  5  6  1  0
  6  7  1  0
  7  8  2  0
  7  9  1  0
  9  3  1  0
  2 10  1  0
  3 11  1  0
  4 12  1  0
  4 13  1  0
  5 14  1  0
  5 15  1  0
  9 16  1  0
  9 17  1  0
M  END
