
     RDKit          3D

 17 18  0  0  0  0  0  0  0  0999 V2000
    2.8104   -0.8039   -1.0968 O   0  0  0  0  0  0  0  0  0  0  0  0
    2.6269   -0.1203   -0.0947 C   0  0  0  0  0  0  0  0  0  0  0  0
    1.2496    0.0142    0.3948 C   0  0  0  0  0  0  0  0  0  0  0  0
    0.1948   -0.9575   -0.0727 C   0  0  0  0  0  0  0  0  0  0  0  0
   -0.6552    0.2448   -0.3994 C   0  0  0  0  0  0  0  0  0  0  0  0
   -2.0241    0.2390    0.2408 C   0  0  0  0  0  0  0  0  0  0  0  0
   -1.8987    0.2051    1.6203 O   0  0  0  0  0  0  0  0  0  0  0  0
    0.3739    1.1054    0.2753 C   0  0  0  0  0  0  0  0  0  0  0  0
    0.9219    0.7466    1.4935 O   0  0  0  0  0  0  0  0  0  0  0  0
    3.4932    0.3297    0.3500 H   0  0  0  0  0  0  0  0  0  0  0  0
    0.4738   -1.6008   -0.9225 H   0  0  0  0  0  0  0  0  0  0  0  0
   -0.1757   -1.5377    0.8210 H   0  0  0  0  0  0  0  0  0  0  0  0
   -0.6734    0.4431   -1.4899 H   0  0  0  0  0  0  0  0  0  0  0  0
   -2.6838    1.0133   -0.1441 H   0  0  0  0  0  0  0  0  0  0  0  0
   -2.4919   -0.7457   -0.0565 H   0  0  0  0  0  0  0  0  0  0  0  0
   -2.0743   -0.7073    2.0002 H   0  0  0  0  0  0  0  0  0  0  0  0
    0.5327    2.1320   -0.0296 H   0  0  0  0  0  0  0  0  0  0  0  0
  1  2  2  0
  2  3  1  0
  3  4  1  0
  4  5  1  0
  5  6  1  0
  6  7  1  0
  5  8  1  0
  8  9  1  0
  8  3  1  0
  9  3  1  0
  2 10  1  0
  4 11  1  0
  4 12  1  0
  5 13  1  0
  6 14  1  0
  6 15  1  0
  7 16  1  0
  8 17  1  0
M  END
