
     RDKit          3D

 17 16  0  0  0  0  0  0  0  0999 V2000
    3.2074   -0.1724   -1.3921 O   0  0  0  0  0  0  0  0  0  0  0  0
    2.2419    0.2246   -0.7621 C   0  0  0  0  0  0  0  0  0  0  0  0
    1.6553   -0.6702    0.2637 C   0  0  0  0  0  0  0  0  0  0  0  0
    0.5714   -0.1164    0.9100 O   0  0  0  0  0  0  0  0  0  0  0  0
   -0.4367    0.1772   -0.0009 C   0  0  0  0  0  0  0  0  0  0  0  0
   -0.7154    1.6340    0.0110 C   0  0  0  0  0  0  0  0  0  0  0  0
   -0.0803    2.3722    0.7618 O   0  0  0  0  0  0  0  0  0  0  0  0
   -1.6718   -0.6314    0.3405 C   0  0  0  0  0  0  0  0  0  0  0  0
   -2.1506   -0.3613    1.6063 O   0  0  0  0  0  0  0  0  0  0  0  0
    1.8786    1.2158   -1.0016 H   0  0  0  0  0  0  0  0  0  0  0  0
    1.2895   -1.5733   -0.2736 H   0  0  0  0  0  0  0  0  0  0  0  0
    2.4709   -0.9490    0.9550 H   0  0  0  0  0  0  0  0  0  0  0  0
   -0.0986   -0.1140   -1.0115 H   0  0  0  0  0  0  0  0  0  0  0  0
   -1.4690    2.0740   -0.6275 H   0  0  0  0  0  0  0  0  0  0  0  0
   -1.3841   -1.7030    0.3181 H   0  0  0  0  0  0  0  0  0  0  0  0
   -2.4593   -0.3726   -0.3880 H   0  0  0  0  0  0  0  0  0  0  0  0
   -2.8492   -1.0342    1.8037 H   0  0  0  0  0  0  0  0  0  0  0  0
  1  2  2  0
  2  3  1  0
  3  4  1  0
  4  5  1  0
  5  6  1  0
  6  7  2  0
  5  8  1  0
  8  9  1  0
  2 10  1  0
  3 11  1  0
  3 12  1  0
  5 13  1  0
  6 14  1  0
  8 15  1  0
  8 16  1  0
  9 17  1  0
M  END
