
     RDKit          3D

 19 19  0  0  0  0  0  0  0  0999 V2000
    3.7430    0.5442    0.1161 O   0  0  0  0  0  0  0  0  0  0  0  0
    2.8386   -0.1585   -0.2657 C   0  0  0  0  0  0  0  0  0  0  0  0
    1.6799   -0.5080    0.6014 C   0  0  0  0  0  0  0  0  0  0  0  0
    0.5229    0.3478    0.1932 C   0  0  0  0  0  0  0  0  0  0  0  0
   -0.7423    0.1078    1.0146 C   0  0  0  0  0  0  0  0  0  0  0  0
   -1.4897    0.4213   -0.2859 C   0  0  0  0  0  0  0  0  0  0  0  0
   -2.7844   -0.2409   -0.3528 C   0  0  0  0  0  0  0  0  0  0  0  0
   -3.2059   -1.0008   -1.1801 O   0  0  0  0  0  0  0  0  0  0  0  0
   -0.3073   -0.2387   -0.9676 C   0  0  0  0  0  0  0  0  0  0  0  0
    2.8461   -0.5615   -1.2670 H   0  0  0  0  0  0  0  0  0  0  0  0
    1.8899   -0.2975    1.6824 H   0  0  0  0  0  0  0  0  0  0  0  0
    1.3941   -1.5785    0.5171 H   0  0  0  0  0  0  0  0  0  0  0  0
    0.7441    1.3803   -0.0515 H   0  0  0  0  0  0  0  0  0  0  0  0
   -0.8317   -0.9820    1.2012 H   0  0  0  0  0  0  0  0  0  0  0  0
   -0.9121    0.7886    1.8458 H   0  0  0  0  0  0  0  0  0  0  0  0
   -1.5031    1.5168   -0.4053 H   0  0  0  0  0  0  0  0  0  0  0  0
   -3.4843   -0.0153    0.4778 H   0  0  0  0  0  0  0  0  0  0  0  0
   -0.3741   -1.3450   -0.9242 H   0  0  0  0  0  0  0  0  0  0  0  0
   -0.0237    0.1782   -1.9491 H   0  0  0  0  0  0  0  0  0  0  0  0
  1  2  2  0
  2  3  1  0
  3  4  1  0
  4  5  1  0
  5  6  1  0
  6  7  1  0
  7  8  2  0
  6  9  1  0
  9  4  1  0
  2 10  1  0
  3 11  1  0
  3 12  1  0
  4 13  1  0
  5 14  1  0
  5 15  1  0
  6 16  1  0
  7 17  1  0
  9 18  1  0
  9 19  1  0
M  END
