
     RDKit          3D

 17 18  0  0  0  0  0  0  0  0999 V2000
   -0.6384    1.6877    1.3661 O   0  0  0  0  0  0  0  0  0  0  0  0
   -1.4667    0.9838    0.8149 C   0  0  0  0  0  0  0  0  0  0  0  0
   -1.1482   -0.1361   -0.0880 C   0  0  0  0  0  0  0  0  0  0  0  0
   -2.2755   -0.8021   -0.6053 O   0  0  0  0  0  0  0  0  0  0  0  0
   -0.0434   -1.0450    0.2657 C   0  0  0  0  0  0  0  0  0  0  0  0
    0.9590   -0.5463    1.2363 C   0  0  0  0  0  0  0  0  0  0  0  0
    1.7064    0.4124    0.7045 C   0  0  0  0  0  0  0  0  0  0  0  0
    1.2712    0.6474   -0.6818 C   0  0  0  0  0  0  0  0  0  0  0  0
    0.0530   -0.1752   -0.9292 C   0  0  0  0  0  0  0  0  0  0  0  0
   -2.5067    1.2422    1.0386 H   0  0  0  0  0  0  0  0  0  0  0  0
   -2.4801   -1.5183    0.0679 H   0  0  0  0  0  0  0  0  0  0  0  0
   -0.0879   -2.1341    0.0529 H   0  0  0  0  0  0  0  0  0  0  0  0
    1.0387   -0.9476    2.2571 H   0  0  0  0  0  0  0  0  0  0  0  0
    2.4961    0.9059    1.2539 H   0  0  0  0  0  0  0  0  0  0  0  0
    2.0687    0.2923   -1.3739 H   0  0  0  0  0  0  0  0  0  0  0  0
    1.1095    1.7271   -0.9059 H   0  0  0  0  0  0  0  0  0  0  0  0
   -0.0556   -0.5941   -1.9557 H   0  0  0  0  0  0  0  0  0  0  0  0
  1  2  2  0
  2  3  1  0
  3  4  1  0
  3  5  1  0
  5  6  1  0
  6  7  2  0
  7  8  1  0
  8  9  1  0
  9  3  1  0
  9  5  1  0
  2 10  1  0
  4 11  1  0
  5 12  1  0
  6 13  1  0
  7 14  1  0
  8 15  1  0
  8 16  1  0
  9 17  1  0
M  END
