
     RDKit          3D

 17 18  0  0  0  0  0  0  0  0999 V2000
    2.7949   -0.4528    1.1279 O   0  0  0  0  0  0  0  0  0  0  0  0
    2.4661   -0.0130    0.0307 C   0  0  0  0  0  0  0  0  0  0  0  0
    1.1425    0.6769   -0.1764 C   0  0  0  0  0  0  0  0  0  0  0  0
    0.4869    0.6873    1.0109 O   0  0  0  0  0  0  0  0  0  0  0  0
   -0.7310    0.0619    1.0246 C   0  0  0  0  0  0  0  0  0  0  0  0
   -1.5789    0.6962   -0.0870 C   0  0  0  0  0  0  0  0  0  0  0  0
   -0.8074   -0.2350   -1.0131 C   0  0  0  0  0  0  0  0  0  0  0  0
   -0.7534   -1.2037    0.1764 C   0  0  0  0  0  0  0  0  0  0  0  0
    0.4682    0.1815   -1.2525 O   0  0  0  0  0  0  0  0  0  0  0  0
    3.1701   -0.1438   -0.7790 H   0  0  0  0  0  0  0  0  0  0  0  0
    1.4225    1.7441   -0.4215 H   0  0  0  0  0  0  0  0  0  0  0  0
   -1.2048    0.0008    1.9913 H   0  0  0  0  0  0  0  0  0  0  0  0
   -2.6061    0.3486    0.0066 H   0  0  0  0  0  0  0  0  0  0  0  0
   -1.4024    1.7608   -0.2270 H   0  0  0  0  0  0  0  0  0  0  0  0
   -1.3323   -0.5935   -1.8855 H   0  0  0  0  0  0  0  0  0  0  0  0
    0.1676   -1.7910    0.1902 H   0  0  0  0  0  0  0  0  0  0  0  0
   -1.7025   -1.7253    0.2833 H   0  0  0  0  0  0  0  0  0  0  0  0
  1  2  2  0
  2  3  1  0
  3  4  1  0
  4  5  1  0
  5  6  1  0
  6  7  1  0
  7  8  1  0
  7  9  1  0
  9  3  1  0
  8  5  1  0
  2 10  1  0
  3 11  1  0
  5 12  1  0
  6 13  1  0
  6 14  1  0
  7 15  1  0
  8 16  1  0
  8 17  1  0
M  END
