
     RDKit          3D

 12 11  0  0  0  0  0  0  0  0999 V2000
   -2.5129    1.0220    0.2421 O   0  0  0  0  0  0  0  0  0  0  0  0
   -1.2971    0.9268    0.2956 C   0  0  0  0  0  0  0  0  0  0  0  0
   -0.7391   -0.4145    0.5741 C   0  0  0  0  0  0  0  0  0  0  0  0
    0.7553   -0.4463    0.6232 C   0  0  0  0  0  0  0  0  0  0  0  0
    1.3764   -0.0104   -0.6632 C   0  0  0  0  0  0  0  0  0  0  0  0
    0.7550    0.3297   -1.6350 O   0  0  0  0  0  0  0  0  0  0  0  0
   -0.7307    1.8198    0.1371 H   0  0  0  0  0  0  0  0  0  0  0  0
   -1.1344   -1.1418   -0.1640 H   0  0  0  0  0  0  0  0  0  0  0  0
   -1.1111   -0.7372    1.5685 H   0  0  0  0  0  0  0  0  0  0  0  0
    1.1179    0.1552    1.4592 H   0  0  0  0  0  0  0  0  0  0  0  0
    1.0613   -1.5015    0.7768 H   0  0  0  0  0  0  0  0  0  0  0  0
    2.4594   -0.0017   -0.7200 H   0  0  0  0  0  0  0  0  0  0  0  0
  1  2  2  0
  2  3  1  0
  3  4  1  0
  4  5  1  0
  5  6  2  0
  2  7  1  0
  3  8  1  0
  3  9  1  0
  4 10  1  0
  4 11  1  0
  5 12  1  0
M  END
