
     RDKit          3D

 19 20  0  0  0  0  0  0  0  0999 V2000
    2.9117    1.0497   -0.9248 O   0  0  0  0  0  0  0  0  0  0  0  0
    2.5017    0.1270   -0.2415 C   0  0  0  0  0  0  0  0  0  0  0  0
    1.1217    0.2152    0.2631 C   0  0  0  0  0  0  0  0  0  0  0  0
    0.7672   -0.8952    1.0296 O   0  0  0  0  0  0  0  0  0  0  0  0
   -0.5863   -1.0958    0.7323 C   0  0  0  0  0  0  0  0  0  0  0  0
   -1.3811    0.1745    0.9786 C   0  0  0  0  0  0  0  0  0  0  0  0
   -1.0791    1.0986   -0.2114 C   0  0  0  0  0  0  0  0  0  0  0  0
    0.0952    0.3540   -0.8285 C   0  0  0  0  0  0  0  0  0  0  0  0
   -0.5074   -1.0581   -0.8064 C   0  0  0  0  0  0  0  0  0  0  0  0
    3.1643   -0.7223   -0.0302 H   0  0  0  0  0  0  0  0  0  0  0  0
    1.0583    1.1002    0.9579 H   0  0  0  0  0  0  0  0  0  0  0  0
   -1.0170   -1.9915    1.1189 H   0  0  0  0  0  0  0  0  0  0  0  0
   -2.4487   -0.0617    1.0468 H   0  0  0  0  0  0  0  0  0  0  0  0
   -1.0401    0.6979    1.9090 H   0  0  0  0  0  0  0  0  0  0  0  0
   -1.9217    1.1213   -0.9232 H   0  0  0  0  0  0  0  0  0  0  0  0
   -0.7271    2.0791    0.1068 H   0  0  0  0  0  0  0  0  0  0  0  0
    0.4224    0.6904   -1.7752 H   0  0  0  0  0  0  0  0  0  0  0  0
   -1.5149   -1.0705   -1.2308 H   0  0  0  0  0  0  0  0  0  0  0  0
    0.1809   -1.8127   -1.1708 H   0  0  0  0  0  0  0  0  0  0  0  0
  1  2  2  0
  2  3  1  0
  3  4  1  0
  4  5  1  0
  5  6  1  0
  6  7  1  0
  7  8  1  0
  8  9  1  0
  8  3  1  0
  9  5  1  0
  2 10  1  0
  3 11  1  0
  5 12  1  0
  6 13  1  0
  6 14  1  0
  7 15  1  0
  7 16  1  0
  8 17  1  0
  9 18  1  0
  9 19  1  0
M  END
