
     RDKit          3D

 19 19  0  0  0  0  0  0  0  0999 V2000
    2.0986   -1.7934    1.5028 O   0  0  0  0  0  0  0  0  0  0  0  0
    1.3749   -0.8446    1.2491 C   0  0  0  0  0  0  0  0  0  0  0  0
    0.5863   -0.7233   -0.0074 C   0  0  0  0  0  0  0  0  0  0  0  0
    1.2873    0.1654   -0.9760 C   0  0  0  0  0  0  0  0  0  0  0  0
    1.4720    1.4435   -0.4540 O   0  0  0  0  0  0  0  0  0  0  0  0
   -0.8092   -0.3977    0.3169 C   0  0  0  0  0  0  0  0  0  0  0  0
   -1.7768   -0.2324   -0.8326 C   0  0  0  0  0  0  0  0  0  0  0  0
   -2.5071    0.6214    0.0056 O   0  0  0  0  0  0  0  0  0  0  0  0
   -1.2500    0.9906    0.5439 C   0  0  0  0  0  0  0  0  0  0  0  0
    1.2649   -0.0045    1.9579 H   0  0  0  0  0  0  0  0  0  0  0  0
    0.6016   -1.7626   -0.4599 H   0  0  0  0  0  0  0  0  0  0  0  0
    2.2828   -0.2215   -1.2603 H   0  0  0  0  0  0  0  0  0  0  0  0
    0.7319    0.3000   -1.9266 H   0  0  0  0  0  0  0  0  0  0  0  0
    1.6855    1.3978    0.4995 H   0  0  0  0  0  0  0  0  0  0  0  0
   -1.2381   -1.1024    1.0527 H   0  0  0  0  0  0  0  0  0  0  0  0
   -2.2630   -1.1859   -1.0551 H   0  0  0  0  0  0  0  0  0  0  0  0
   -1.3741    0.2856   -1.7241 H   0  0  0  0  0  0  0  0  0  0  0  0
   -1.3887    1.2740    1.6057 H   0  0  0  0  0  0  0  0  0  0  0  0
   -0.7789    1.7902   -0.0379 H   0  0  0  0  0  0  0  0  0  0  0  0
  1  2  2  0
  2  3  1  0
  3  4  1  0
  4  5  1  0
  3  6  1  0
  6  7  1  0
  7  8  1  0
  8  9  1  0
  9  6  1  0
  2 10  1  0
  3 11  1  0
  4 12  1  0
  4 13  1  0
  5 14  1  0
  6 15  1  0
  7 16  1  0
  7 17  1  0
  9 18  1  0
  9 19  1  0
M  END
