
     RDKit          3D

 13 12  0  0  0  0  0  0  0  0999 V2000
    3.2772    1.6146   -1.3223 O   0  0  0  0  0  0  0  0  0  0  0  0
    2.8418    0.9361   -0.2890 C   0  0  0  0  0  0  0  0  0  0  0  0
    1.7219    0.2744   -0.3412 C   0  0  0  0  0  0  0  0  0  0  0  0
    0.5114   -0.4623   -0.4110 C   0  0  0  0  0  0  0  0  0  0  0  0
   -0.7273   -1.1920   -0.4848 C   0  0  0  0  0  0  0  0  0  0  0  0
   -1.7643   -0.5123    0.2243 C   0  0  0  0  0  0  0  0  0  0  0  0
   -2.9018   -1.2139    0.2854 O   0  0  0  0  0  0  0  0  0  0  0  0
   -1.6843    0.7705    0.8931 C   0  0  0  0  0  0  0  0  0  0  0  0
   -0.8490    1.5707    0.7982 O   0  0  0  0  0  0  0  0  0  0  0  0
    3.5883    1.0126    0.5962 H   0  0  0  0  0  0  0  0  0  0  0  0
   -0.9215   -1.5064   -1.5946 H   0  0  0  0  0  0  0  0  0  0  0  0
   -0.4880   -2.2630    0.0285 H   0  0  0  0  0  0  0  0  0  0  0  0
   -2.6044    0.9709    1.6171 H   0  0  0  0  0  0  0  0  0  0  0  0
  1  2  2  0
  2  3  1  0
  3  4  3  0
  4  5  1  0
  5  6  1  0
  6  7  2  0
  6  8  1  0
  8  9  2  0
  2 10  1  0
  5 11  1  0
  5 12  1  0
  8 13  1  0
M  END
