
     RDKit          3D

 15 15  0  0  0  0  0  0  0  0999 V2000
    2.6845    0.9192   -0.7018 O   0  0  0  0  0  0  0  0  0  0  0  0
    2.1518    0.1588    0.0669 C   0  0  0  0  0  0  0  0  0  0  0  0
    0.6969    0.1909    0.2698 C   0  0  0  0  0  0  0  0  0  0  0  0
    0.0567   -1.1675   -0.0530 C   0  0  0  0  0  0  0  0  0  0  0  0
   -1.3594   -1.0156    0.3118 C   0  0  0  0  0  0  0  0  0  0  0  0
   -2.0697   -1.9801    0.6265 O   0  0  0  0  0  0  0  0  0  0  0  0
   -1.8683    0.2581    0.2885 O   0  0  0  0  0  0  0  0  0  0  0  0
   -1.2182    1.3142   -0.3914 C   0  0  0  0  0  0  0  0  0  0  0  0
    0.1331    1.1565   -0.5090 O   0  0  0  0  0  0  0  0  0  0  0  0
    2.7409   -0.5539    0.6142 H   0  0  0  0  0  0  0  0  0  0  0  0
    0.4648    0.4156    1.3295 H   0  0  0  0  0  0  0  0  0  0  0  0
    0.1427   -1.3779   -1.1470 H   0  0  0  0  0  0  0  0  0  0  0  0
    0.5523   -1.9811    0.5094 H   0  0  0  0  0  0  0  0  0  0  0  0
   -1.6838    1.4210   -1.4066 H   0  0  0  0  0  0  0  0  0  0  0  0
   -1.4245    2.2418    0.1922 H   0  0  0  0  0  0  0  0  0  0  0  0
  1  2  2  0
  2  3  1  0
  3  4  1  0
  4  5  1  0
  5  6  2  0
  5  7  1  0
  7  8  1  0
  8  9  1  0
  9  3  1  0
  2 10  1  0
  3 11  1  0
  4 12  1  0
  4 13  1  0
  8 14  1  0
  8 15  1  0
M  END
