
     RDKit          3D

 19 19  0  0  0  0  0  0  0  0999 V2000
    3.4155    0.3529   -1.8145 O   0  0  0  0  0  0  0  0  0  0  0  0
    3.6160   -0.2169   -0.7532 C   0  0  0  0  0  0  0  0  0  0  0  0
    3.1392    0.4299    0.5162 C   0  0  0  0  0  0  0  0  0  0  0  0
    1.7212    0.1150    0.7351 C   0  0  0  0  0  0  0  0  0  0  0  0
    0.5556   -0.1229    0.9187 C   0  0  0  0  0  0  0  0  0  0  0  0
   -0.8831   -0.3939    1.1330 C   0  0  0  0  0  0  0  0  0  0  0  0
   -1.6451    0.4070    0.1339 C   0  0  0  0  0  0  0  0  0  0  0  0
   -3.1344    0.3056    0.1438 C   0  0  0  0  0  0  0  0  0  0  0  0
   -2.3549   -0.4177   -0.9357 C   0  0  0  0  0  0  0  0  0  0  0  0
    4.1215   -1.1628   -0.6979 H   0  0  0  0  0  0  0  0  0  0  0  0
    3.2070    1.5245    0.4257 H   0  0  0  0  0  0  0  0  0  0  0  0
    3.7695    0.1260    1.3781 H   0  0  0  0  0  0  0  0  0  0  0  0
   -1.1282   -0.0590    2.1609 H   0  0  0  0  0  0  0  0  0  0  0  0
   -1.1292   -1.4453    1.0376 H   0  0  0  0  0  0  0  0  0  0  0  0
   -1.1582    1.3463   -0.2105 H   0  0  0  0  0  0  0  0  0  0  0  0
   -3.7944    1.0833   -0.2313 H   0  0  0  0  0  0  0  0  0  0  0  0
   -3.5718   -0.2894    0.9745 H   0  0  0  0  0  0  0  0  0  0  0  0
   -2.3586   -1.5263   -0.8159 H   0  0  0  0  0  0  0  0  0  0  0  0
   -2.3875   -0.0562   -1.9697 H   0  0  0  0  0  0  0  0  0  0  0  0
  1  2  2  0
  2  3  1  0
  3  4  1  0
  4  5  3  0
  5  6  1  0
  6  7  1  0
  7  8  1  0
  8  9  1  0
  9  7  1  0
  2 10  1  0
  3 11  1  0
  3 12  1  0
  6 13  1  0
  6 14  1  0
  7 15  1  0
  8 16  1  0
  8 17  1  0
  9 18  1  0
  9 19  1  0
M  END
