
     RDKit          3D

 16 16  0  0  0  0  0  0  0  0999 V2000
   -2.8731   -1.2373   -0.4700 O   0  0  0  0  0  0  0  0  0  0  0  0
   -2.1744   -0.4500    0.1329 C   0  0  0  0  0  0  0  0  0  0  0  0
   -0.7161   -0.5645    0.0182 C   0  0  0  0  0  0  0  0  0  0  0  0
    0.0887    0.0810    1.1231 C   0  0  0  0  0  0  0  0  0  0  0  0
    0.9732    0.6799    0.0344 C   0  0  0  0  0  0  0  0  0  0  0  0
    2.0836   -0.2228   -0.3637 C   0  0  0  0  0  0  0  0  0  0  0  0
    2.8407   -0.6058    0.5025 O   0  0  0  0  0  0  0  0  0  0  0  0
   -0.1878    0.5416   -0.9042 C   0  0  0  0  0  0  0  0  0  0  0  0
   -2.6601    0.3038    0.7301 H   0  0  0  0  0  0  0  0  0  0  0  0
   -0.3079   -1.5445   -0.2241 H   0  0  0  0  0  0  0  0  0  0  0  0
    0.7059   -0.6267    1.7245 H   0  0  0  0  0  0  0  0  0  0  0  0
   -0.4746    0.8104    1.7152 H   0  0  0  0  0  0  0  0  0  0  0  0
    1.3189    1.7063    0.2399 H   0  0  0  0  0  0  0  0  0  0  0  0
    2.1837   -0.5117   -1.4144 H   0  0  0  0  0  0  0  0  0  0  0  0
    0.0450    0.2056   -1.9208 H   0  0  0  0  0  0  0  0  0  0  0  0
   -0.8456    1.4348   -0.9237 H   0  0  0  0  0  0  0  0  0  0  0  0
  1  2  2  0
  2  3  1  0
  3  4  1  0
  4  5  1  0
  5  6  1  0
  6  7  2  0
  5  8  1  0
  8  3  1  0
  2  9  1  0
  3 10  1  0
  4 11  1  0
  4 12  1  0
  5 13  1  0
  6 14  1  0
  8 15  1  0
  8 16  1  0
M  END
