
     RDKit          3D

 18 19  0  0  0  0  0  0  0  0999 V2000
    3.1330   -0.6736    0.1273 O   0  0  0  0  0  0  0  0  0  0  0  0
    2.3455    0.2444    0.0408 C   0  0  0  0  0  0  0  0  0  0  0  0
    0.9090    0.1553    0.3924 C   0  0  0  0  0  0  0  0  0  0  0  0
    0.3254   -1.2009    0.0666 C   0  0  0  0  0  0  0  0  0  0  0  0
   -1.0891   -0.9093   -0.3091 C   0  0  0  0  0  0  0  0  0  0  0  0
   -1.8994    0.0106    0.5889 C   0  0  0  0  0  0  0  0  0  0  0  0
   -1.2177    0.5271   -0.6285 C   0  0  0  0  0  0  0  0  0  0  0  0
    0.1416    1.1504   -0.4195 C   0  0  0  0  0  0  0  0  0  0  0  0
    2.7225    1.1889   -0.3175 H   0  0  0  0  0  0  0  0  0  0  0  0
    0.7835    0.3418    1.4980 H   0  0  0  0  0  0  0  0  0  0  0  0
    0.3478   -1.8196    0.9730 H   0  0  0  0  0  0  0  0  0  0  0  0
    0.8318   -1.6921   -0.7684 H   0  0  0  0  0  0  0  0  0  0  0  0
   -1.6675   -1.6971   -0.7805 H   0  0  0  0  0  0  0  0  0  0  0  0
   -3.0209   -0.1031    0.5675 H   0  0  0  0  0  0  0  0  0  0  0  0
   -1.4439    0.1240    1.5975 H   0  0  0  0  0  0  0  0  0  0  0  0
   -1.8259    0.9019   -1.4543 H   0  0  0  0  0  0  0  0  0  0  0  0
    0.6072    1.3758   -1.3884 H   0  0  0  0  0  0  0  0  0  0  0  0
    0.0169    2.0753    0.2141 H   0  0  0  0  0  0  0  0  0  0  0  0
  1  2  2  0
  2  3  1  0
  3  4  1  0
  4  5  1  0
  5  6  1  0
  6  7  1  0
  7  8  1  0
  8  3  1  0
  7  5  1  0
  2  9  1  0
  3 10  1  0
  4 11  1  0
  4 12  1  0
  5 13  1  0
  6 14  1  0
  6 15  1  0
  7 16  1  0
  8 17  1  0
  8 18  1  0
M  END
