
     RDKit          3D

 17 19  0  0  0  0  0  0  0  0999 V2000
    2.8174    0.5043   -0.6685 O   0  0  0  0  0  0  0  0  0  0  0  0
    1.6103    0.5730   -0.9504 C   0  0  0  0  0  0  0  0  0  0  0  0
    0.6574   -0.0204   -0.2083 C   0  0  0  0  0  0  0  0  0  0  0  0
    0.7627   -1.3414    0.5118 C   0  0  0  0  0  0  0  0  0  0  0  0
   -0.6465   -0.8834    0.7899 C   0  0  0  0  0  0  0  0  0  0  0  0
   -0.0872    0.4896    0.9802 C   0  0  0  0  0  0  0  0  0  0  0  0
   -1.0974    1.3979    0.3979 C   0  0  0  0  0  0  0  0  0  0  0  0
   -1.5562    0.6969   -0.6612 C   0  0  0  0  0  0  0  0  0  0  0  0
   -0.6923   -0.5022   -0.6567 C   0  0  0  0  0  0  0  0  0  0  0  0
    1.4247    1.1681   -1.8646 H   0  0  0  0  0  0  0  0  0  0  0  0
    0.8107   -2.1725   -0.2163 H   0  0  0  0  0  0  0  0  0  0  0  0
    1.4380   -1.3842    1.3596 H   0  0  0  0  0  0  0  0  0  0  0  0
   -1.3433   -1.3562    1.3300 H   0  0  0  0  0  0  0  0  0  0  0  0
    0.4199    0.7518    1.8717 H   0  0  0  0  0  0  0  0  0  0  0  0
   -1.3850    2.3806    0.7489 H   0  0  0  0  0  0  0  0  0  0  0  0
   -2.3542    0.9361   -1.3515 H   0  0  0  0  0  0  0  0  0  0  0  0
   -0.7791   -1.2381   -1.4125 H   0  0  0  0  0  0  0  0  0  0  0  0
  1  2  2  0
  2  3  1  0
  3  4  1  0
  4  5  1  0
  5  6  1  0
  6  7  1  0
  7  8  2  0
  8  9  1  0
  6  3  1  0
  9  3  1  0
  9  5  1  0
  2 10  1  0
  4 11  1  0
  4 12  1  0
  5 13  1  0
  6 14  1  0
  7 15  1  0
  8 16  1  0
  9 17  1  0
M  END
