
     RDKit          3D

 16 16  0  0  0  0  0  0  0  0999 V2000
    3.6960    0.7542    0.1632 O   0  0  0  0  0  0  0  0  0  0  0  0
    2.8460    0.0187   -0.3080 C   0  0  0  0  0  0  0  0  0  0  0  0
    1.6951   -0.3386    0.5261 C   0  0  0  0  0  0  0  0  0  0  0  0
    1.0239   -1.5409    0.3306 O   0  0  0  0  0  0  0  0  0  0  0  0
    0.3831   -0.4619   -0.2300 C   0  0  0  0  0  0  0  0  0  0  0  0
   -0.8292    0.1413    0.3916 C   0  0  0  0  0  0  0  0  0  0  0  0
   -2.0093   -0.1011   -0.5306 C   0  0  0  0  0  0  0  0  0  0  0  0
   -3.1467    0.4670    0.0566 O   0  0  0  0  0  0  0  0  0  0  0  0
    3.0102   -0.3181   -1.3211 H   0  0  0  0  0  0  0  0  0  0  0  0
    1.6040    0.0498    1.5529 H   0  0  0  0  0  0  0  0  0  0  0  0
    0.4074   -0.4014   -1.3409 H   0  0  0  0  0  0  0  0  0  0  0  0
   -0.6795    1.2521    0.4142 H   0  0  0  0  0  0  0  0  0  0  0  0
   -1.0235   -0.1844    1.4231 H   0  0  0  0  0  0  0  0  0  0  0  0
   -2.1322   -1.1809   -0.7049 H   0  0  0  0  0  0  0  0  0  0  0  0
   -1.7560    0.3984   -1.4973 H   0  0  0  0  0  0  0  0  0  0  0  0
   -3.0892    1.4457   -0.0516 H   0  0  0  0  0  0  0  0  0  0  0  0
  1  2  2  0
  2  3  1  0
  3  4  1  0
  4  5  1  0
  5  6  1  0
  6  7  1  0
  7  8  1  0
  5  3  1  0
  2  9  1  0
  3 10  1  0
  5 11  1  0
  6 12  1  0
  6 13  1  0
  7 14  1  0
  7 15  1  0
  8 16  1  0
M  END
