
     RDKit          3D

 14 15  0  0  0  0  0  0  0  0999 V2000
    2.6096   -0.1738   -0.8485 O   0  0  0  0  0  0  0  0  0  0  0  0
    1.8766   -0.6461    0.0030 C   0  0  0  0  0  0  0  0  0  0  0  0
    0.5412   -0.2049    0.1410 C   0  0  0  0  0  0  0  0  0  0  0  0
    0.2354    1.2418    0.3216 C   0  0  0  0  0  0  0  0  0  0  0  0
   -1.0890    1.2144    0.4560 C   0  0  0  0  0  0  0  0  0  0  0  0
   -1.3382   -0.2719    0.3545 C   0  0  0  0  0  0  0  0  0  0  0  0
   -0.5164   -0.6406   -0.8505 C   0  0  0  0  0  0  0  0  0  0  0  0
   -0.2791   -0.7664    1.1298 O   0  0  0  0  0  0  0  0  0  0  0  0
    2.3056   -1.4204    0.6456 H   0  0  0  0  0  0  0  0  0  0  0  0
    0.9616    2.0356    0.3281 H   0  0  0  0  0  0  0  0  0  0  0  0
   -1.8196    1.9988    0.5985 H   0  0  0  0  0  0  0  0  0  0  0  0
   -2.3120   -0.6382    0.4898 H   0  0  0  0  0  0  0  0  0  0  0  0
   -0.5486   -1.7198   -1.0299 H   0  0  0  0  0  0  0  0  0  0  0  0
   -0.6271   -0.0084   -1.7392 H   0  0  0  0  0  0  0  0  0  0  0  0
  1  2  2  0
  2  3  1  0
  3  4  1  0
  4  5  2  0
  5  6  1  0
  6  7  1  0
  6  8  1  0
  7  3  1  0
  8  3  1  0
  2  9  1  0
  4 10  1  0
  5 11  1  0
  6 12  1  0
  7 13  1  0
  7 14  1  0
M  END
