
     RDKit          3D

 19 20  0  0  0  0  0  0  0  0999 V2000
    2.4802    0.1037    1.1262 O   0  0  0  0  0  0  0  0  0  0  0  0
    2.6253    0.1779   -0.0718 C   0  0  0  0  0  0  0  0  0  0  0  0
    1.4439    0.1074   -0.9505 C   0  0  0  0  0  0  0  0  0  0  0  0
    0.2132   -0.0540   -0.0978 C   0  0  0  0  0  0  0  0  0  0  0  0
   -0.1048    0.9850    0.8844 C   0  0  0  0  0  0  0  0  0  0  0  0
   -1.4110    1.1008    1.0157 C   0  0  0  0  0  0  0  0  0  0  0  0
   -2.1726    0.1757    0.1593 C   0  0  0  0  0  0  0  0  0  0  0  0
   -1.0780   -0.4654   -0.6658 C   0  0  0  0  0  0  0  0  0  0  0  0
   -0.2424   -1.4519    0.0839 C   0  0  0  0  0  0  0  0  0  0  0  0
    3.5979    0.2936   -0.4967 H   0  0  0  0  0  0  0  0  0  0  0  0
    1.3795    0.9806   -1.6287 H   0  0  0  0  0  0  0  0  0  0  0  0
    1.5860   -0.7959   -1.6027 H   0  0  0  0  0  0  0  0  0  0  0  0
    0.6754    1.5606    1.4119 H   0  0  0  0  0  0  0  0  0  0  0  0
   -1.8772    1.8189    1.6989 H   0  0  0  0  0  0  0  0  0  0  0  0
   -2.9351    0.6771   -0.4722 H   0  0  0  0  0  0  0  0  0  0  0  0
   -2.6351   -0.6632    0.7520 H   0  0  0  0  0  0  0  0  0  0  0  0
   -1.2429   -0.5833   -1.7567 H   0  0  0  0  0  0  0  0  0  0  0  0
    0.2082   -2.2374   -0.5133 H   0  0  0  0  0  0  0  0  0  0  0  0
   -0.5106   -1.7302    1.1238 H   0  0  0  0  0  0  0  0  0  0  0  0
  1  2  2  0
  2  3  1  0
  3  4  1  0
  4  5  1  0
  5  6  2  0
  6  7  1  0
  7  8  1  0
  8  9  1  0
  8  4  1  0
  9  4  1  0
  2 10  1  0
  3 11  1  0
  3 12  1  0
  5 13  1  0
  6 14  1  0
  7 15  1  0
  7 16  1  0
  8 17  1  0
  9 18  1  0
  9 19  1  0
M  END
