
     RDKit          3D

 17 17  0  0  0  0  0  0  0  0999 V2000
    2.8071    0.5983    0.0480 O   0  0  0  0  0  0  0  0  0  0  0  0
    1.7789   -0.0583    0.2296 C   0  0  0  0  0  0  0  0  0  0  0  0
    0.5075    0.4469   -0.3325 C   0  0  0  0  0  0  0  0  0  0  0  0
    0.7005    1.6410   -1.0085 O   0  0  0  0  0  0  0  0  0  0  0  0
   -0.1704   -0.5747   -1.2107 C   0  0  0  0  0  0  0  0  0  0  0  0
   -0.9548   -1.3386   -0.4650 C   0  0  0  0  0  0  0  0  0  0  0  0
   -0.8683   -0.8992    0.9507 C   0  0  0  0  0  0  0  0  0  0  0  0
   -0.5222    0.5652    0.7686 C   0  0  0  0  0  0  0  0  0  0  0  0
   -1.6701    1.1916    0.2873 O   0  0  0  0  0  0  0  0  0  0  0  0
    1.8556   -0.9775    0.7943 H   0  0  0  0  0  0  0  0  0  0  0  0
    1.5691    1.5891   -1.4888 H   0  0  0  0  0  0  0  0  0  0  0  0
   -0.0148   -0.6407   -2.2745 H   0  0  0  0  0  0  0  0  0  0  0  0
   -1.5696   -2.1563   -0.8036 H   0  0  0  0  0  0  0  0  0  0  0  0
   -1.8117   -1.0400    1.5042 H   0  0  0  0  0  0  0  0  0  0  0  0
   -0.0180   -1.4442    1.4400 H   0  0  0  0  0  0  0  0  0  0  0  0
   -0.1323    1.0243    1.6849 H   0  0  0  0  0  0  0  0  0  0  0  0
   -1.4866    2.0730   -0.1240 H   0  0  0  0  0  0  0  0  0  0  0  0
  1  2  2  0
  2  3  1  0
  3  4  1  0
  3  5  1  0
  5  6  2  0
  6  7  1  0
  7  8  1  0
  8  9  1  0
  8  3  1  0
  2 10  1  0
  4 11  1  0
  5 12  1  0
  6 13  1  0
  7 14  1  0
  7 15  1  0
  8 16  1  0
  9 17  1  0
M  END
