
     RDKit          3D

 21 22  0  0  0  0  0  0  0  0999 V2000
    3.0760   -1.7015    0.4527 O   0  0  0  0  0  0  0  0  0  0  0  0
    3.3203   -0.5236    0.2730 C   0  0  0  0  0  0  0  0  0  0  0  0
    2.2400    0.3643   -0.2183 C   0  0  0  0  0  0  0  0  0  0  0  0
    0.9476   -0.3323   -0.4349 C   0  0  0  0  0  0  0  0  0  0  0  0
    0.2129   -1.0298    0.6362 C   0  0  0  0  0  0  0  0  0  0  0  0
   -0.2589    0.3043    0.2230 C   0  0  0  0  0  0  0  0  0  0  0  0
   -1.4191    0.5110   -0.6888 C   0  0  0  0  0  0  0  0  0  0  0  0
   -2.6845    1.1203   -0.2070 C   0  0  0  0  0  0  0  0  0  0  0  0
   -2.6536   -0.2956   -0.5819 C   0  0  0  0  0  0  0  0  0  0  0  0
    4.2932   -0.0878    0.4547 H   0  0  0  0  0  0  0  0  0  0  0  0
    2.0809    1.2092    0.4805 H   0  0  0  0  0  0  0  0  0  0  0  0
    2.5627    0.8580   -1.1792 H   0  0  0  0  0  0  0  0  0  0  0  0
    0.8304   -0.7684   -1.4500 H   0  0  0  0  0  0  0  0  0  0  0  0
   -0.3492   -1.9534    0.3902 H   0  0  0  0  0  0  0  0  0  0  0  0
    0.7223   -1.1076    1.6263 H   0  0  0  0  0  0  0  0  0  0  0  0
   -0.0868    1.1397    0.9359 H   0  0  0  0  0  0  0  0  0  0  0  0
   -1.1146    0.7442   -1.7506 H   0  0  0  0  0  0  0  0  0  0  0  0
   -2.8078    1.3529    0.8770 H   0  0  0  0  0  0  0  0  0  0  0  0
   -3.1015    1.9191   -0.8497 H   0  0  0  0  0  0  0  0  0  0  0  0
   -2.6683   -1.0460    0.2389 H   0  0  0  0  0  0  0  0  0  0  0  0
   -3.1418   -0.6769   -1.5017 H   0  0  0  0  0  0  0  0  0  0  0  0
  1  2  2  0
  2  3  1  0
  3  4  1  0
  4  5  1  0
  5  6  1  0
  6  7  1  0
  7  8  1  0
  8  9  1  0
  6  4  1  0
  9  7  1  0
  2 10  1  0
  3 11  1  0
  3 12  1  0
  4 13  1  0
  5 14  1  0
  5 15  1  0
  6 16  1  0
  7 17  1  0
  8 18  1  0
  8 19  1  0
  9 20  1  0
  9 21  1  0
M  END
