
     RDKit          3D

 15 16  0  0  0  0  0  0  0  0999 V2000
    3.2018   -1.1040   -2.7442 O   0  0  0  0  0  0  0  0  0  0  0  0
    2.8380    0.0296   -2.3686 C   0  0  0  0  0  0  0  0  0  0  0  0
    1.9122    0.1599   -1.2870 C   0  0  0  0  0  0  0  0  0  0  0  0
    1.1230    0.2873   -0.3551 C   0  0  0  0  0  0  0  0  0  0  0  0
    0.1770    0.4172    0.7393 C   0  0  0  0  0  0  0  0  0  0  0  0
   -0.8414   -0.6394    0.8598 C   0  0  0  0  0  0  0  0  0  0  0  0
   -1.9476   -0.3863    1.8575 C   0  0  0  0  0  0  0  0  0  0  0  0
   -2.1823    0.8980    1.3723 O   0  0  0  0  0  0  0  0  0  0  0  0
   -1.2440    0.7022    0.3652 C   0  0  0  0  0  0  0  0  0  0  0  0
    3.2181    0.9069   -2.8554 H   0  0  0  0  0  0  0  0  0  0  0  0
    0.5645    0.7987    1.7259 H   0  0  0  0  0  0  0  0  0  0  0  0
   -0.9136   -1.4897    0.1789 H   0  0  0  0  0  0  0  0  0  0  0  0
   -1.5354   -0.3253    2.8738 H   0  0  0  0  0  0  0  0  0  0  0  0
   -2.8519   -1.0154    1.7395 H   0  0  0  0  0  0  0  0  0  0  0  0
   -1.5185    0.7604   -0.6871 H   0  0  0  0  0  0  0  0  0  0  0  0
  1  2  2  0
  2  3  1  0
  3  4  3  0
  4  5  1  0
  5  6  1  0
  6  7  1  0
  7  8  1  0
  8  9  1  0
  9  5  1  0
  9  6  1  0
  2 10  1  0
  5 11  1  0
  6 12  1  0
  7 13  1  0
  7 14  1  0
  9 15  1  0
M  END
