
     RDKit          3D

 19 20  0  0  0  0  0  0  0  0999 V2000
   -3.5895    0.6140    1.2449 O   0  0  0  0  0  0  0  0  0  0  0  0
   -2.8482    0.0166    0.4852 C   0  0  0  0  0  0  0  0  0  0  0  0
   -1.3712    0.2884    0.4760 C   0  0  0  0  0  0  0  0  0  0  0  0
   -0.7578   -0.6050   -0.5631 C   0  0  0  0  0  0  0  0  0  0  0  0
    0.7352   -0.4338   -0.6800 C   0  0  0  0  0  0  0  0  0  0  0  0
    1.5384   -0.7164    0.5455 C   0  0  0  0  0  0  0  0  0  0  0  0
    2.2151    0.6206    0.3714 C   0  0  0  0  0  0  0  0  0  0  0  0
    1.3903    1.7070    0.4338 O   0  0  0  0  0  0  0  0  0  0  0  0
    1.2270    0.9714   -0.7356 C   0  0  0  0  0  0  0  0  0  0  0  0
   -3.3084   -0.7093   -0.1716 H   0  0  0  0  0  0  0  0  0  0  0  0
   -0.9243    0.0539    1.4543 H   0  0  0  0  0  0  0  0  0  0  0  0
   -1.2387    1.3643    0.2092 H   0  0  0  0  0  0  0  0  0  0  0  0
   -1.2166   -0.3437   -1.5389 H   0  0  0  0  0  0  0  0  0  0  0  0
   -1.0557   -1.6363   -0.3336 H   0  0  0  0  0  0  0  0  0  0  0  0
    1.1134   -1.0095   -1.5538 H   0  0  0  0  0  0  0  0  0  0  0  0
    0.9624   -0.7100    1.4938 H   0  0  0  0  0  0  0  0  0  0  0  0
    2.2504   -1.5631    0.4623 H   0  0  0  0  0  0  0  0  0  0  0  0
    3.2614    0.6846    0.0729 H   0  0  0  0  0  0  0  0  0  0  0  0
    1.6167    1.4062   -1.6727 H   0  0  0  0  0  0  0  0  0  0  0  0
  1  2  2  0
  2  3  1  0
  3  4  1  0
  4  5  1  0
  5  6  1  0
  6  7  1  0
  7  8  1  0
  8  9  1  0
  9  5  1  0
  9  7  1  0
  2 10  1  0
  3 11  1  0
  3 12  1  0
  4 13  1  0
  4 14  1  0
  5 15  1  0
  6 16  1  0
  6 17  1  0
  7 18  1  0
  9 19  1  0
M  END
