
     RDKit          3D

 15 16  0  0  0  0  0  0  0  0999 V2000
    3.8398   -0.8395    1.3178 O   0  0  0  0  0  0  0  0  0  0  0  0
    3.3408   -0.4028    0.2517 C   0  0  0  0  0  0  0  0  0  0  0  0
    1.9331   -0.1330    0.2527 C   0  0  0  0  0  0  0  0  0  0  0  0
    0.7247    0.0799    0.2635 C   0  0  0  0  0  0  0  0  0  0  0  0
   -0.7428    0.3439    0.3022 C   0  0  0  0  0  0  0  0  0  0  0  0
   -1.0476    1.2890   -0.8702 C   0  0  0  0  0  0  0  0  0  0  0  0
   -0.6218    0.1350   -1.5861 O   0  0  0  0  0  0  0  0  0  0  0  0
   -1.5712   -0.4754   -0.7701 C   0  0  0  0  0  0  0  0  0  0  0  0
   -1.4893   -0.8614    0.5955 C   0  0  0  0  0  0  0  0  0  0  0  0
    3.9753   -0.2521   -0.6000 H   0  0  0  0  0  0  0  0  0  0  0  0
   -2.0780    1.5837   -1.0001 H   0  0  0  0  0  0  0  0  0  0  0  0
   -0.3395    2.1201   -0.9089 H   0  0  0  0  0  0  0  0  0  0  0  0
   -2.5693   -0.0070   -1.0452 H   0  0  0  0  0  0  0  0  0  0  0  0
   -2.3555   -0.7233    1.3068 H   0  0  0  0  0  0  0  0  0  0  0  0
   -0.9988   -1.8571    0.8201 H   0  0  0  0  0  0  0  0  0  0  0  0
  1  2  2  0
  2  3  1  0
  3  4  3  0
  4  5  1  0
  5  6  1  0
  6  7  1  0
  7  8  1  0
  8  9  1  0
  8  5  1  0
  9  5  1  0
  2 10  1  0
  6 11  1  0
  6 12  1  0
  8 13  1  0
  9 14  1  0
  9 15  1  0
M  END
