
     RDKit          3D

 17 17  0  0  0  0  0  0  0  0999 V2000
    2.0614    1.8435    0.4666 O   0  0  0  0  0  0  0  0  0  0  0  0
    2.0541    0.6652    0.1557 C   0  0  0  0  0  0  0  0  0  0  0  0
    1.0456    0.0547   -0.7517 C   0  0  0  0  0  0  0  0  0  0  0  0
    0.4329   -1.1187   -0.1023 C   0  0  0  0  0  0  0  0  0  0  0  0
   -0.9325   -0.9689    0.4328 C   0  0  0  0  0  0  0  0  0  0  0  0
   -1.4469    0.4228    0.5530 C   0  0  0  0  0  0  0  0  0  0  0  0
   -1.1023    1.2600   -0.6275 C   0  0  0  0  0  0  0  0  0  0  0  0
   -1.9196    2.0909   -1.1018 O   0  0  0  0  0  0  0  0  0  0  0  0
    0.1558    1.0603   -1.1522 O   0  0  0  0  0  0  0  0  0  0  0  0
    2.8339    0.0421    0.5736 H   0  0  0  0  0  0  0  0  0  0  0  0
    1.6180   -0.2401   -1.6809 H   0  0  0  0  0  0  0  0  0  0  0  0
    1.1147   -1.4776    0.7250 H   0  0  0  0  0  0  0  0  0  0  0  0
    0.4490   -1.9748   -0.8400 H   0  0  0  0  0  0  0  0  0  0  0  0
   -1.0176   -1.4407    1.4565 H   0  0  0  0  0  0  0  0  0  0  0  0
   -1.6703   -1.5382   -0.2069 H   0  0  0  0  0  0  0  0  0  0  0  0
   -2.5694    0.3591    0.6486 H   0  0  0  0  0  0  0  0  0  0  0  0
   -1.1070    0.9605    1.4517 H   0  0  0  0  0  0  0  0  0  0  0  0
  1  2  2  0
  2  3  1  0
  3  4  1  0
  4  5  1  0
  5  6  1  0
  6  7  1  0
  7  8  2  0
  7  9  1  0
  9  3  1  0
  2 10  1  0
  3 11  1  0
  4 12  1  0
  4 13  1  0
  5 14  1  0
  5 15  1  0
  6 16  1  0
  6 17  1  0
M  END
