
     RDKit          3D

 18 18  0  0  0  0  0  0  0  0999 V2000
    2.9412    1.1805   -1.0315 O   0  0  0  0  0  0  0  0  0  0  0  0
    2.8471    0.2118   -0.3022 C   0  0  0  0  0  0  0  0  0  0  0  0
    1.5326   -0.3100    0.1584 C   0  0  0  0  0  0  0  0  0  0  0  0
    0.4116    0.5382   -0.4155 C   0  0  0  0  0  0  0  0  0  0  0  0
   -0.8830   -0.0294    0.0783 C   0  0  0  0  0  0  0  0  0  0  0  0
   -2.1263    0.6938   -0.3956 C   0  0  0  0  0  0  0  0  0  0  0  0
   -2.7540   -0.5672   -0.3581 O   0  0  0  0  0  0  0  0  0  0  0  0
   -1.5205   -1.0709   -0.8176 C   0  0  0  0  0  0  0  0  0  0  0  0
    3.7598   -0.2673    0.0070 H   0  0  0  0  0  0  0  0  0  0  0  0
    1.4693   -1.3619   -0.2209 H   0  0  0  0  0  0  0  0  0  0  0  0
    1.5432   -0.2879    1.2599 H   0  0  0  0  0  0  0  0  0  0  0  0
    0.5808    1.5810   -0.1157 H   0  0  0  0  0  0  0  0  0  0  0  0
    0.4658    0.4396   -1.5143 H   0  0  0  0  0  0  0  0  0  0  0  0
   -0.9625   -0.2841    1.1310 H   0  0  0  0  0  0  0  0  0  0  0  0
   -2.0974    1.0235   -1.4622 H   0  0  0  0  0  0  0  0  0  0  0  0
   -2.5192    1.4322    0.3109 H   0  0  0  0  0  0  0  0  0  0  0  0
   -1.3755   -0.8133   -1.8900 H   0  0  0  0  0  0  0  0  0  0  0  0
   -1.3130   -2.1086   -0.5715 H   0  0  0  0  0  0  0  0  0  0  0  0
  1  2  2  0
  2  3  1  0
  3  4  1  0
  4  5  1  0
  5  6  1  0
  6  7  1  0
  7  8  1  0
  8  5  1  0
  2  9  1  0
  3 10  1  0
  3 11  1  0
  4 12  1  0
  4 13  1  0
  5 14  1  0
  6 15  1  0
  6 16  1  0
  8 17  1  0
  8 18  1  0
M  END
