
     RDKit          3D

 17 18  0  0  0  0  0  0  0  0999 V2000
   -2.5880   -1.5382   -0.2474 O   0  0  0  0  0  0  0  0  0  0  0  0
   -1.4657   -1.3650   -0.6297 C   0  0  0  0  0  0  0  0  0  0  0  0
   -0.6374   -0.2913    0.0130 C   0  0  0  0  0  0  0  0  0  0  0  0
    0.2389   -0.7187    1.1355 C   0  0  0  0  0  0  0  0  0  0  0  0
    1.5980   -0.2314    0.7867 C   0  0  0  0  0  0  0  0  0  0  0  0
    2.6379   -0.6292    1.2627 O   0  0  0  0  0  0  0  0  0  0  0  0
    1.4352    0.8181   -0.2395 C   0  0  0  0  0  0  0  0  0  0  0  0
    0.1064    0.5882   -0.9042 C   0  0  0  0  0  0  0  0  0  0  0  0
   -1.1433    1.0860   -0.1328 C   0  0  0  0  0  0  0  0  0  0  0  0
   -1.0261   -1.9569   -1.4246 H   0  0  0  0  0  0  0  0  0  0  0  0
    0.3042   -1.8355    1.1545 H   0  0  0  0  0  0  0  0  0  0  0  0
   -0.1391   -0.3363    2.0832 H   0  0  0  0  0  0  0  0  0  0  0  0
    1.4028    1.8048    0.2846 H   0  0  0  0  0  0  0  0  0  0  0  0
    2.2476    0.8498   -0.9730 H   0  0  0  0  0  0  0  0  0  0  0  0
   -0.0111    0.6032   -1.9824 H   0  0  0  0  0  0  0  0  0  0  0  0
   -2.0623    1.2466   -0.7280 H   0  0  0  0  0  0  0  0  0  0  0  0
   -0.8981    1.9060    0.5413 H   0  0  0  0  0  0  0  0  0  0  0  0
  1  2  2  0
  2  3  1  0
  3  4  1  0
  4  5  1  0
  5  6  2  0
  5  7  1  0
  7  8  1  0
  8  9  1  0
  8  3  1  0
  9  3  1  0
  2 10  1  0
  4 11  1  0
  4 12  1  0
  7 13  1  0
  7 14  1  0
  8 15  1  0
  9 16  1  0
  9 17  1  0
M  END
