
     RDKit          3D

 17 17  0  0  0  0  0  0  0  0999 V2000
    3.6761   -0.3397    0.4643 O   0  0  0  0  0  0  0  0  0  0  0  0
    2.4898   -0.4272    0.6471 C   0  0  0  0  0  0  0  0  0  0  0  0
    1.6072   -0.8918   -0.4268 C   0  0  0  0  0  0  0  0  0  0  0  0
    0.2810   -0.9509   -0.1052 O   0  0  0  0  0  0  0  0  0  0  0  0
   -0.3032    0.2101    0.2678 C   0  0  0  0  0  0  0  0  0  0  0  0
   -1.6295    0.4070   -0.4716 C   0  0  0  0  0  0  0  0  0  0  0  0
   -2.1130    1.0492    0.7691 C   0  0  0  0  0  0  0  0  0  0  0  0
   -2.9062    1.9130    1.0348 O   0  0  0  0  0  0  0  0  0  0  0  0
   -1.1909    0.1576    1.5102 C   0  0  0  0  0  0  0  0  0  0  0  0
    2.1008   -0.1594    1.6050 H   0  0  0  0  0  0  0  0  0  0  0  0
    1.9331   -1.9328   -0.6957 H   0  0  0  0  0  0  0  0  0  0  0  0
    1.7695   -0.3025   -1.3777 H   0  0  0  0  0  0  0  0  0  0  0  0
    0.2942    1.1269    0.2965 H   0  0  0  0  0  0  0  0  0  0  0  0
   -2.1125   -0.5814   -0.6063 H   0  0  0  0  0  0  0  0  0  0  0  0
   -1.5516    1.0403   -1.3615 H   0  0  0  0  0  0  0  0  0  0  0  0
   -1.6117   -0.8838    1.6193 H   0  0  0  0  0  0  0  0  0  0  0  0
   -0.7331    0.5654    2.4171 H   0  0  0  0  0  0  0  0  0  0  0  0
  1  2  2  0
  2  3  1  0
  3  4  1  0
  4  5  1  0
  5  6  1  0
  6  7  1  0
  7  8  2  0
  7  9  1  0
  9  5  1  0
  2 10  1  0
  3 11  1  0
  3 12  1  0
  5 13  1  0
  6 14  1  0
  6 15  1  0
  9 16  1  0
  9 17  1  0
M  END
