
     RDKit          3D

 15 16  0  0  0  0  0  0  0  0999 V2000
    2.6986   -0.7583   -0.3988 O   0  0  0  0  0  0  0  0  0  0  0  0
    2.0063    0.2188   -0.6278 C   0  0  0  0  0  0  0  0  0  0  0  0
    0.6134    0.2020   -0.3233 C   0  0  0  0  0  0  0  0  0  0  0  0
    0.2052   -0.2457    1.0919 C   0  0  0  0  0  0  0  0  0  0  0  0
   -1.0925   -0.5338    0.3415 C   0  0  0  0  0  0  0  0  0  0  0  0
   -1.4512    0.8632   -0.0756 C   0  0  0  0  0  0  0  0  0  0  0  0
   -0.1871    1.2813   -0.5685 O   0  0  0  0  0  0  0  0  0  0  0  0
   -0.2124   -0.9518   -0.7790 C   0  0  0  0  0  0  0  0  0  0  0  0
   -0.2522   -1.8280   -1.6007 O   0  0  0  0  0  0  0  0  0  0  0  0
    2.4791    1.0741   -1.0591 H   0  0  0  0  0  0  0  0  0  0  0  0
    0.7335   -1.1331    1.4429 H   0  0  0  0  0  0  0  0  0  0  0  0
    0.1136    0.5945    1.8075 H   0  0  0  0  0  0  0  0  0  0  0  0
   -1.7953   -1.1904    0.7553 H   0  0  0  0  0  0  0  0  0  0  0  0
   -2.2274    0.9223   -0.8317 H   0  0  0  0  0  0  0  0  0  0  0  0
   -1.6315    1.4849    0.8255 H   0  0  0  0  0  0  0  0  0  0  0  0
  1  2  2  0
  2  3  1  0
  3  4  1  0
  4  5  1  0
  5  6  1  0
  6  7  1  0
  5  8  1  0
  8  9  2  0
  7  3  1  0
  8  3  1  0
  2 10  1  0
  4 11  1  0
  4 12  1  0
  5 13  1  0
  6 14  1  0
  6 15  1  0
M  END
