
     RDKit          3D

 17 17  0  0  0  0  0  0  0  0999 V2000
   -2.4890    0.6171   -1.4121 O   0  0  0  0  0  0  0  0  0  0  0  0
   -2.2479   -0.1558   -0.5166 C   0  0  0  0  0  0  0  0  0  0  0  0
   -0.9572   -0.1748    0.1893 C   0  0  0  0  0  0  0  0  0  0  0  0
    0.0075   -1.2087   -0.3887 C   0  0  0  0  0  0  0  0  0  0  0  0
    1.0989   -1.2371    0.5051 O   0  0  0  0  0  0  0  0  0  0  0  0
    1.9651   -0.2250    0.0953 C   0  0  0  0  0  0  0  0  0  0  0  0
    1.1602    0.9465   -0.3089 C   0  0  0  0  0  0  0  0  0  0  0  0
    1.6566    1.7722   -1.0426 O   0  0  0  0  0  0  0  0  0  0  0  0
   -0.2333    1.1514    0.1489 C   0  0  0  0  0  0  0  0  0  0  0  0
   -3.0089   -0.8604   -0.2223 H   0  0  0  0  0  0  0  0  0  0  0  0
   -1.0749   -0.4733    1.2728 H   0  0  0  0  0  0  0  0  0  0  0  0
   -0.4650   -2.1928   -0.4825 H   0  0  0  0  0  0  0  0  0  0  0  0
    0.3084   -0.8368   -1.3730 H   0  0  0  0  0  0  0  0  0  0  0  0
    2.7150    0.0147    0.8756 H   0  0  0  0  0  0  0  0  0  0  0  0
    2.4693   -0.6202   -0.8325 H   0  0  0  0  0  0  0  0  0  0  0  0
   -0.1578    1.5844    1.1888 H   0  0  0  0  0  0  0  0  0  0  0  0
   -0.7468    1.8988   -0.4901 H   0  0  0  0  0  0  0  0  0  0  0  0
  1  2  2  0
  2  3  1  0
  3  4  1  0
  4  5  1  0
  5  6  1  0
  6  7  1  0
  7  8  2  0
  7  9  1  0
  9  3  1  0
  2 10  1  0
  3 11  1  0
  4 12  1  0
  4 13  1  0
  6 14  1  0
  6 15  1  0
  9 16  1  0
  9 17  1  0
M  END
