
     RDKit          3D

 16 17  0  0  0  0  0  0  0  0999 V2000
    3.0583   -0.8722    1.7032 O   0  0  0  0  0  0  0  0  0  0  0  0
    2.5951   -0.1742    0.8250 C   0  0  0  0  0  0  0  0  0  0  0  0
    1.2008   -0.4369    0.3882 C   0  0  0  0  0  0  0  0  0  0  0  0
    1.2439   -0.6571   -1.1036 O   0  0  0  0  0  0  0  0  0  0  0  0
    0.5682    0.4909   -0.4741 C   0  0  0  0  0  0  0  0  0  0  0  0
   -0.8944    0.4668   -0.8083 C   0  0  0  0  0  0  0  0  0  0  0  0
   -1.8029    0.6207    0.4229 C   0  0  0  0  0  0  0  0  0  0  0  0
   -1.7631   -0.6590   -0.3928 C   0  0  0  0  0  0  0  0  0  0  0  0
    3.2056    0.6042    0.3969 H   0  0  0  0  0  0  0  0  0  0  0  0
    0.6561   -1.2547    0.8851 H   0  0  0  0  0  0  0  0  0  0  0  0
    1.1042    1.4098   -0.7915 H   0  0  0  0  0  0  0  0  0  0  0  0
   -1.1664    1.0219   -1.7224 H   0  0  0  0  0  0  0  0  0  0  0  0
   -1.3414    0.5186    1.4202 H   0  0  0  0  0  0  0  0  0  0  0  0
   -2.6440    1.3227    0.2795 H   0  0  0  0  0  0  0  0  0  0  0  0
   -1.3484   -1.5776    0.0802 H   0  0  0  0  0  0  0  0  0  0  0  0
   -2.6714   -0.8238   -0.9980 H   0  0  0  0  0  0  0  0  0  0  0  0
  1  2  2  0
  2  3  1  0
  3  4  1  0
  4  5  1  0
  5  6  1  0
  6  7  1  0
  7  8  1  0
  5  3  1  0
  8  6  1  0
  2  9  1  0
  3 10  1  0
  5 11  1  0
  6 12  1  0
  7 13  1  0
  7 14  1  0
  8 15  1  0
  8 16  1  0
M  END
