
     RDKit          3D

 17 17  0  0  0  0  0  0  0  0999 V2000
    0.2645    2.8673   -0.3796 O   0  0  0  0  0  0  0  0  0  0  0  0
   -0.0102    1.8961    0.2927 C   0  0  0  0  0  0  0  0  0  0  0  0
    0.0857    0.5578   -0.2592 C   0  0  0  0  0  0  0  0  0  0  0  0
    0.4959    0.4198   -1.5636 O   0  0  0  0  0  0  0  0  0  0  0  0
   -1.1701   -0.2991   -0.0388 C   0  0  0  0  0  0  0  0  0  0  0  0
   -2.0340   -0.2930   -1.1088 O   0  0  0  0  0  0  0  0  0  0  0  0
   -0.1935   -1.4754   -0.0125 C   0  0  0  0  0  0  0  0  0  0  0  0
    0.7782   -0.4793    0.6382 C   0  0  0  0  0  0  0  0  0  0  0  0
    2.0828   -0.7408    0.3009 O   0  0  0  0  0  0  0  0  0  0  0  0
   -0.3274    2.0502    1.3102 H   0  0  0  0  0  0  0  0  0  0  0  0
    1.4710    0.3070   -1.6558 H   0  0  0  0  0  0  0  0  0  0  0  0
   -1.6069   -0.1272    0.9579 H   0  0  0  0  0  0  0  0  0  0  0  0
   -2.7711    0.3429   -0.8863 H   0  0  0  0  0  0  0  0  0  0  0  0
    0.1901   -1.7118   -1.0177 H   0  0  0  0  0  0  0  0  0  0  0  0
   -0.4872   -2.3068    0.6297 H   0  0  0  0  0  0  0  0  0  0  0  0
    0.5515   -0.3309    1.7066 H   0  0  0  0  0  0  0  0  0  0  0  0
    2.6808   -0.6769    1.0860 H   0  0  0  0  0  0  0  0  0  0  0  0
  1  2  2  0
  2  3  1  0
  3  4  1  0
  3  5  1  0
  5  6  1  0
  5  7  1  0
  7  8  1  0
  8  9  1  0
  8  3  1  0
  2 10  1  0
  4 11  1  0
  5 12  1  0
  6 13  1  0
  7 14  1  0
  7 15  1  0
  8 16  1  0
  9 17  1  0
M  END
