
     RDKit          3D

 17 17  0  0  0  0  0  0  0  0999 V2000
    2.9470    0.8641   -1.4703 O   0  0  0  0  0  0  0  0  0  0  0  0
    2.6265    0.0570   -0.5616 C   0  0  0  0  0  0  0  0  0  0  0  0
    1.2187   -0.1672   -0.1825 C   0  0  0  0  0  0  0  0  0  0  0  0
    0.7953   -0.9869    0.7498 C   0  0  0  0  0  0  0  0  0  0  0  0
   -0.7061   -0.9395    0.8434 C   0  0  0  0  0  0  0  0  0  0  0  0
   -0.9360    0.4832    0.3358 C   0  0  0  0  0  0  0  0  0  0  0  0
   -2.3110    0.7370   -0.0611 C   0  0  0  0  0  0  0  0  0  0  0  0
   -3.0465   -0.1741   -0.3644 O   0  0  0  0  0  0  0  0  0  0  0  0
    0.0548    0.5021   -0.8063 C   0  0  0  0  0  0  0  0  0  0  0  0
    3.4249   -0.4700   -0.0653 H   0  0  0  0  0  0  0  0  0  0  0  0
    1.4679   -1.5958    1.3468 H   0  0  0  0  0  0  0  0  0  0  0  0
   -1.1760   -1.6144    0.1317 H   0  0  0  0  0  0  0  0  0  0  0  0
   -1.0582   -1.0565    1.8776 H   0  0  0  0  0  0  0  0  0  0  0  0
   -0.5585    1.1644    1.1310 H   0  0  0  0  0  0  0  0  0  0  0  0
   -2.6988    1.7393   -0.0921 H   0  0  0  0  0  0  0  0  0  0  0  0
   -0.3418   -0.0729   -1.6753 H   0  0  0  0  0  0  0  0  0  0  0  0
    0.2978    1.5302   -1.1371 H   0  0  0  0  0  0  0  0  0  0  0  0
  1  2  2  0
  2  3  1  0
  3  4  2  0
  4  5  1  0
  5  6  1  0
  6  7  1  0
  7  8  2  0
  6  9  1  0
  9  3  1  0
  2 10  1  0
  4 11  1  0
  5 12  1  0
  5 13  1  0
  6 14  1  0
  7 15  1  0
  9 16  1  0
  9 17  1  0
M  END
