
     RDKit          3D

 12 12  0  0  0  0  0  0  0  0999 V2000
    2.6949    0.4984   -0.3193 O   0  0  0  0  0  0  0  0  0  0  0  0
    1.7591   -0.1887   -0.6926 C   0  0  0  0  0  0  0  0  0  0  0  0
    0.3975    0.2807   -0.3283 C   0  0  0  0  0  0  0  0  0  0  0  0
   -0.5948   -0.5757   -0.8031 O   0  0  0  0  0  0  0  0  0  0  0  0
   -1.7036   -0.3255   -0.0141 C   0  0  0  0  0  0  0  0  0  0  0  0
   -1.1911    0.0018    1.2854 O   0  0  0  0  0  0  0  0  0  0  0  0
    0.1463    0.2857    1.1102 C   0  0  0  0  0  0  0  0  0  0  0  0
    0.9756    0.5038    2.0114 O   0  0  0  0  0  0  0  0  0  0  0  0
    1.9770   -1.0758   -1.2525 H   0  0  0  0  0  0  0  0  0  0  0  0
    0.2465    1.3344   -0.7041 H   0  0  0  0  0  0  0  0  0  0  0  0
   -2.3542    0.4809   -0.4029 H   0  0  0  0  0  0  0  0  0  0  0  0
   -2.3532   -1.2200    0.1098 H   0  0  0  0  0  0  0  0  0  0  0  0
  1  2  2  0
  2  3  1  0
  3  4  1  0
  4  5  1  0
  5  6  1  0
  6  7  1  0
  7  8  2  0
  7  3  1  0
  2  9  1  0
  3 10  1  0
  5 11  1  0
  5 12  1  0
M  END
