
     RDKit          3D

 18 17  0  0  0  0  0  0  0  0999 V2000
    3.4453   -0.6084    0.8646 O   0  0  0  0  0  0  0  0  0  0  0  0
    3.2629    0.5325    0.4784 C   0  0  0  0  0  0  0  0  0  0  0  0
    1.9342    1.0092    0.0047 C   0  0  0  0  0  0  0  0  0  0  0  0
    0.9025   -0.0981    0.0782 C   0  0  0  0  0  0  0  0  0  0  0  0
   -0.3456    0.3323   -0.3616 O   0  0  0  0  0  0  0  0  0  0  0  0
   -1.2167   -0.7378   -0.2592 C   0  0  0  0  0  0  0  0  0  0  0  0
   -2.6172   -0.3874   -0.7131 C   0  0  0  0  0  0  0  0  0  0  0  0
   -3.1748    0.6314    0.0205 O   0  0  0  0  0  0  0  0  0  0  0  0
    4.1004    1.2149    0.4833 H   0  0  0  0  0  0  0  0  0  0  0  0
    2.0819    1.3634   -1.0369 H   0  0  0  0  0  0  0  0  0  0  0  0
    1.5759    1.8642    0.5926 H   0  0  0  0  0  0  0  0  0  0  0  0
    0.7916   -0.4092    1.1296 H   0  0  0  0  0  0  0  0  0  0  0  0
    1.2938   -0.9516   -0.5097 H   0  0  0  0  0  0  0  0  0  0  0  0
   -1.2901   -1.0705    0.7993 H   0  0  0  0  0  0  0  0  0  0  0  0
   -0.8609   -1.5488   -0.9276 H   0  0  0  0  0  0  0  0  0  0  0  0
   -3.2144   -1.3342   -0.6273 H   0  0  0  0  0  0  0  0  0  0  0  0
   -2.6413   -0.1068   -1.7879 H   0  0  0  0  0  0  0  0  0  0  0  0
   -4.0277    0.3049    0.4032 H   0  0  0  0  0  0  0  0  0  0  0  0
  1  2  2  0
  2  3  1  0
  3  4  1  0
  4  5  1  0
  5  6  1  0
  6  7  1  0
  7  8  1  0
  2  9  1  0
  3 10  1  0
  3 11  1  0
  4 12  1  0
  4 13  1  0
  6 14  1  0
  6 15  1  0
  7 16  1  0
  7 17  1  0
  8 18  1  0
M  END
