
     RDKit          3D

 18 18  0  0  0  0  0  0  0  0999 V2000
   -2.5251    0.3790   -1.3535 O   0  0  0  0  0  0  0  0  0  0  0  0
   -2.5245   -0.3969   -0.4292 C   0  0  0  0  0  0  0  0  0  0  0  0
   -1.4337   -0.5047    0.5608 C   0  0  0  0  0  0  0  0  0  0  0  0
   -0.3147    0.4678    0.2868 C   0  0  0  0  0  0  0  0  0  0  0  0
    0.3049    0.2380   -1.0761 C   0  0  0  0  0  0  0  0  0  0  0  0
    1.6478    0.5328   -0.4230 C   0  0  0  0  0  0  0  0  0  0  0  0
    2.6809   -0.2934   -0.7882 O   0  0  0  0  0  0  0  0  0  0  0  0
    1.0250    0.0334    0.8821 C   0  0  0  0  0  0  0  0  0  0  0  0
   -3.3731   -1.0607   -0.3094 H   0  0  0  0  0  0  0  0  0  0  0  0
   -1.8475   -0.3377    1.5799 H   0  0  0  0  0  0  0  0  0  0  0  0
   -1.0580   -1.5470    0.5539 H   0  0  0  0  0  0  0  0  0  0  0  0
   -0.5097    1.5111    0.5250 H   0  0  0  0  0  0  0  0  0  0  0  0
    0.2527   -0.8402   -1.3187 H   0  0  0  0  0  0  0  0  0  0  0  0
    0.0018    0.9338   -1.8644 H   0  0  0  0  0  0  0  0  0  0  0  0
    1.8801    1.6092   -0.3038 H   0  0  0  0  0  0  0  0  0  0  0  0
    3.3814   -0.2807   -0.0908 H   0  0  0  0  0  0  0  0  0  0  0  0
    1.0681   -1.0661    0.9841 H   0  0  0  0  0  0  0  0  0  0  0  0
    1.3435    0.6222    1.7588 H   0  0  0  0  0  0  0  0  0  0  0  0
  1  2  2  0
  2  3  1  0
  3  4  1  0
  4  5  1  0
  5  6  1  0
  6  7  1  0
  6  8  1  0
  8  4  1  0
  2  9  1  0
  3 10  1  0
  3 11  1  0
  4 12  1  0
  5 13  1  0
  5 14  1  0
  6 15  1  0
  7 16  1  0
  8 17  1  0
  8 18  1  0
M  END
