
     RDKit          3D

 19 19  0  0  0  0  0  0  0  0999 V2000
    3.4303    0.6738    1.1559 O   0  0  0  0  0  0  0  0  0  0  0  0
    2.4044    0.6130    0.4548 C   0  0  0  0  0  0  0  0  0  0  0  0
    1.6953   -0.6577    0.2975 C   0  0  0  0  0  0  0  0  0  0  0  0
    0.4273   -0.6415   -0.4462 C   0  0  0  0  0  0  0  0  0  0  0  0
   -0.7177    0.1227    0.0897 C   0  0  0  0  0  0  0  0  0  0  0  0
   -0.6106    1.5917    0.2944 C   0  0  0  0  0  0  0  0  0  0  0  0
   -0.3468    2.3908   -0.5636 O   0  0  0  0  0  0  0  0  0  0  0  0
   -1.7070   -0.5552    0.9963 C   0  0  0  0  0  0  0  0  0  0  0  0
   -2.1016   -0.3771   -0.4118 C   0  0  0  0  0  0  0  0  0  0  0  0
    2.1029    1.5476   -0.0126 H   0  0  0  0  0  0  0  0  0  0  0  0
    1.6074   -1.1337    1.3201 H   0  0  0  0  0  0  0  0  0  0  0  0
    2.4273   -1.3400   -0.2613 H   0  0  0  0  0  0  0  0  0  0  0  0
    0.1053   -1.6955   -0.7393 H   0  0  0  0  0  0  0  0  0  0  0  0
    0.6421   -0.1948   -1.4768 H   0  0  0  0  0  0  0  0  0  0  0  0
   -0.7912    1.9989    1.3204 H   0  0  0  0  0  0  0  0  0  0  0  0
   -1.4101   -1.5634    1.3546 H   0  0  0  0  0  0  0  0  0  0  0  0
   -2.2336    0.0759    1.7336 H   0  0  0  0  0  0  0  0  0  0  0  0
   -2.8060    0.4094   -0.7494 H   0  0  0  0  0  0  0  0  0  0  0  0
   -2.1177   -1.2650   -1.0369 H   0  0  0  0  0  0  0  0  0  0  0  0
  1  2  2  0
  2  3  1  0
  3  4  1  0
  4  5  1  0
  5  6  1  0
  6  7  2  0
  5  8  1  0
  8  9  1  0
  9  5  1  0
  2 10  1  0
  3 11  1  0
  3 12  1  0
  4 13  1  0
  4 14  1  0
  6 15  1  0
  8 16  1  0
  8 17  1  0
  9 18  1  0
  9 19  1  0
M  END
