
     RDKit          3D

 21 21  0  0  0  0  0  0  0  0999 V2000
    2.2516    0.4727    1.6873 O   0  0  0  0  0  0  0  0  0  0  0  0
    2.6435    0.1709    0.5863 C   0  0  0  0  0  0  0  0  0  0  0  0
    1.7388   -0.3264   -0.4652 C   0  0  0  0  0  0  0  0  0  0  0  0
    0.3502   -0.3239    0.0457 C   0  0  0  0  0  0  0  0  0  0  0  0
    0.1501   -1.0964    1.1659 O   0  0  0  0  0  0  0  0  0  0  0  0
   -0.1414    1.0702    0.3325 C   0  0  0  0  0  0  0  0  0  0  0  0
   -1.6020    0.7239    0.6769 C   0  0  0  0  0  0  0  0  0  0  0  0
   -1.9516   -0.0812   -0.5579 C   0  0  0  0  0  0  0  0  0  0  0  0
   -0.6701   -0.7575   -0.9999 C   0  0  0  0  0  0  0  0  0  0  0  0
    3.6950    0.2705    0.3686 H   0  0  0  0  0  0  0  0  0  0  0  0
    1.8405    0.3934   -1.3298 H   0  0  0  0  0  0  0  0  0  0  0  0
    2.0741   -1.3106   -0.8620 H   0  0  0  0  0  0  0  0  0  0  0  0
   -0.5529   -1.7764    1.0408 H   0  0  0  0  0  0  0  0  0  0  0  0
    0.3460    1.5996    1.1387 H   0  0  0  0  0  0  0  0  0  0  0  0
   -0.1653    1.6199   -0.6328 H   0  0  0  0  0  0  0  0  0  0  0  0
   -2.2145    1.6302    0.7849 H   0  0  0  0  0  0  0  0  0  0  0  0
   -1.5717    0.0923    1.5809 H   0  0  0  0  0  0  0  0  0  0  0  0
   -2.3130    0.6612   -1.3173 H   0  0  0  0  0  0  0  0  0  0  0  0
   -2.7325   -0.8189   -0.2850 H   0  0  0  0  0  0  0  0  0  0  0  0
   -0.4213   -0.3700   -1.9999 H   0  0  0  0  0  0  0  0  0  0  0  0
   -0.7533   -1.8437   -0.9587 H   0  0  0  0  0  0  0  0  0  0  0  0
  1  2  2  0
  2  3  1  0
  3  4  1  0
  4  5  1  0
  4  6  1  0
  6  7  1  0
  7  8  1  0
  8  9  1  0
  9  4  1  0
  2 10  1  0
  3 11  1  0
  3 12  1  0
  5 13  1  0
  6 14  1  0
  6 15  1  0
  7 16  1  0
  7 17  1  0
  8 18  1  0
  8 19  1  0
  9 20  1  0
  9 21  1  0
M  END
