
     RDKit          3D

 17 18  0  0  0  0  0  0  0  0999 V2000
   -2.6468    1.3947   -1.1997 O   0  0  0  0  0  0  0  0  0  0  0  0
   -1.6971    0.6514   -1.2831 C   0  0  0  0  0  0  0  0  0  0  0  0
   -1.2054   -0.0527   -0.0857 C   0  0  0  0  0  0  0  0  0  0  0  0
   -2.0126    0.3175    1.0008 O   0  0  0  0  0  0  0  0  0  0  0  0
    0.1408    0.1106    0.1872 C   0  0  0  0  0  0  0  0  0  0  0  0
    1.2687   -0.1612   -0.7676 C   0  0  0  0  0  0  0  0  0  0  0  0
    1.8523    0.3595    0.5155 C   0  0  0  0  0  0  0  0  0  0  0  0
    0.9367   -0.5790    1.2319 C   0  0  0  0  0  0  0  0  0  0  0  0
    0.8021    1.2676    0.5223 O   0  0  0  0  0  0  0  0  0  0  0  0
   -1.2225    0.5147   -2.2363 H   0  0  0  0  0  0  0  0  0  0  0  0
   -1.4441   -1.1476   -0.2611 H   0  0  0  0  0  0  0  0  0  0  0  0
   -2.2929   -0.4570    1.5433 H   0  0  0  0  0  0  0  0  0  0  0  0
    1.4424   -1.2367   -0.8627 H   0  0  0  0  0  0  0  0  0  0  0  0
    1.3472    0.4678   -1.6483 H   0  0  0  0  0  0  0  0  0  0  0  0
    2.8222    0.5474    0.7079 H   0  0  0  0  0  0  0  0  0  0  0  0
    1.1880   -1.6282    0.9798 H   0  0  0  0  0  0  0  0  0  0  0  0
    0.7212   -0.3687    2.2816 H   0  0  0  0  0  0  0  0  0  0  0  0
  1  2  2  0
  2  3  1  0
  3  4  1  0
  3  5  1  0
  5  6  1  0
  6  7  1  0
  7  8  1  0
  7  9  1  0
  8  5  1  0
  9  5  1  0
  2 10  1  0
  3 11  1  0
  4 12  1  0
  6 13  1  0
  6 14  1  0
  7 15  1  0
  8 16  1  0
  8 17  1  0
M  END
