
     RDKit          3D

 13 13  0  0  0  0  0  0  0  0999 V2000
    3.8585   -1.0239    0.8476 O   0  0  0  0  0  0  0  0  0  0  0  0
    3.1237   -0.0921    0.9978 C   0  0  0  0  0  0  0  0  0  0  0  0
    1.7019   -0.0990    0.6636 C   0  0  0  0  0  0  0  0  0  0  0  0
    0.5317   -0.0851    0.3964 C   0  0  0  0  0  0  0  0  0  0  0  0
   -0.9115   -0.0796    0.0439 C   0  0  0  0  0  0  0  0  0  0  0  0
   -1.2827   -0.7666   -1.2438 C   0  0  0  0  0  0  0  0  0  0  0  0
   -2.4281   -0.7959   -1.5624 O   0  0  0  0  0  0  0  0  0  0  0  0
   -1.7757    0.8730    0.6037 C   0  0  0  0  0  0  0  0  0  0  0  0
   -1.6934   -0.4100    1.1596 O   0  0  0  0  0  0  0  0  0  0  0  0
    3.5126    0.8780    1.4268 H   0  0  0  0  0  0  0  0  0  0  0  0
   -0.4878   -1.1993   -1.8126 H   0  0  0  0  0  0  0  0  0  0  0  0
   -1.3929    1.7227    1.2166 H   0  0  0  0  0  0  0  0  0  0  0  0
   -2.7564    1.0777    0.1309 H   0  0  0  0  0  0  0  0  0  0  0  0
  1  2  2  0
  2  3  1  0
  3  4  3  0
  4  5  1  0
  5  6  1  0
  6  7  2  0
  5  8  1  0
  8  9  1  0
  9  5  1  0
  2 10  1  0
  6 11  1  0
  8 12  1  0
  8 13  1  0
M  END
