
     RDKit          3D

 20 20  0  0  0  0  0  0  0  0999 V2000
    3.0894    1.9548    0.4619 O   0  0  0  0  0  0  0  0  0  0  0  0
    3.1227    0.7448    0.3889 C   0  0  0  0  0  0  0  0  0  0  0  0
    1.9393   -0.0508   -0.0434 C   0  0  0  0  0  0  0  0  0  0  0  0
    0.8273    0.8955   -0.3326 C   0  0  0  0  0  0  0  0  0  0  0  0
   -0.4572    0.2790   -0.7870 C   0  0  0  0  0  0  0  0  0  0  0  0
   -1.0606   -0.6662    0.1978 C   0  0  0  0  0  0  0  0  0  0  0  0
   -2.3252   -1.3784   -0.0552 C   0  0  0  0  0  0  0  0  0  0  0  0
   -2.3611   -0.1813    0.8594 C   0  0  0  0  0  0  0  0  0  0  0  0
    4.0444    0.2284    0.6471 H   0  0  0  0  0  0  0  0  0  0  0  0
    2.2549   -0.6529   -0.9212 H   0  0  0  0  0  0  0  0  0  0  0  0
    1.6371   -0.7701    0.7317 H   0  0  0  0  0  0  0  0  0  0  0  0
    0.6458    1.4988    0.5791 H   0  0  0  0  0  0  0  0  0  0  0  0
    1.1817    1.6116   -1.1058 H   0  0  0  0  0  0  0  0  0  0  0  0
   -0.3742   -0.1952   -1.7882 H   0  0  0  0  0  0  0  0  0  0  0  0
   -1.1790    1.1076   -0.9312 H   0  0  0  0  0  0  0  0  0  0  0  0
   -0.3469   -1.1359    0.9218 H   0  0  0  0  0  0  0  0  0  0  0  0
   -2.8516   -1.3462   -1.0295 H   0  0  0  0  0  0  0  0  0  0  0  0
   -2.4691   -2.3416    0.4755 H   0  0  0  0  0  0  0  0  0  0  0  0
   -2.8611    0.6999    0.4116 H   0  0  0  0  0  0  0  0  0  0  0  0
   -2.4567   -0.3019    1.9445 H   0  0  0  0  0  0  0  0  0  0  0  0
  1  2  2  0
  2  3  1  0
  3  4  1  0
  4  5  1  0
  5  6  1  0
  6  7  1  0
  7  8  1  0
  8  6  1  0
  2  9  1  0
  3 10  1  0
  3 11  1  0
  4 12  1  0
  4 13  1  0
  5 14  1  0
  5 15  1  0
  6 16  1  0
  7 17  1  0
  7 18  1  0
  8 19  1  0
  8 20  1  0
M  END
