
     RDKit          2D

 17 18  0  0  0  0  0  0  0  0999 V2000
   -4.6309   -0.3882    0.0000 O   0  0  0  0  0  0  0  0  0  0  0  0
   -3.1820   -0.0000    0.0000 C   0  0  0  0  0  0  0  0  0  0  0  0
   -2.1213   -1.0607    0.0000 C   0  0  0  0  0  0  0  0  0  0  0  0
   -3.1820   -2.1213    0.0000 O   0  0  0  0  0  0  0  0  0  0  0  0
   -1.0607   -2.1213    0.0000 C   0  0  0  0  0  0  0  0  0  0  0  0
   -0.0000   -1.0607    0.0000 C   0  0  0  0  0  0  0  0  0  0  0  0
    1.0607    0.0000    0.0000 O   0  0  0  0  0  0  0  0  0  0  0  0
    0.0000    1.0607    0.0000 C   0  0  0  0  0  0  0  0  0  0  0  0
   -1.0607    0.0000    0.0000 C   0  0  0  0  0  0  0  0  0  0  0  0
   -2.9733    1.4854    0.0000 H   0  0  0  0  0  0  0  0  0  0  0  0
   -4.6309   -1.7331    0.0000 H   0  0  0  0  0  0  0  0  0  0  0  0
   -2.1213   -3.1820    0.0000 H   0  0  0  0  0  0  0  0  0  0  0  0
   -0.0000   -3.1820    0.0000 H   0  0  0  0  0  0  0  0  0  0  0  0
    1.0607   -2.1213    0.0000 H   0  0  0  0  0  0  0  0  0  0  0  0
   -1.0607    2.1213    0.0000 H   0  0  0  0  0  0  0  0  0  0  0  0
    1.0607    2.1213    0.0000 H   0  0  0  0  0  0  0  0  0  0  0  0
   -1.9841    1.1820    0.0000 H   0  0  0  0  0  0  0  0  0  0  0  0
  1  2  2  0
  2  3  1  0
  3  4  1  0
  3  5  1  0
  5  6  1  0
  6  7  1  0
  7  8  1  0
  8  9  1  0
  9  3  1  0
  9  6  1  0
  2 10  1  0
  4 11  1  0
  5 12  1  0
  5 13  1  0
  6 14  1  0
  8 15  1  0
  8 16  1  0
  9 17  1  0
M  END
