
     RDKit          3D

 19 20  0  0  0  0  0  0  0  0999 V2000
    2.7462    0.0356    1.6211 O   0  0  0  0  0  0  0  0  0  0  0  0
    2.3972    0.4041    0.5262 C   0  0  0  0  0  0  0  0  0  0  0  0
    0.9817    0.2045    0.0417 C   0  0  0  0  0  0  0  0  0  0  0  0
    0.2470    1.4421   -0.1936 C   0  0  0  0  0  0  0  0  0  0  0  0
   -1.0763    1.4619   -0.3577 C   0  0  0  0  0  0  0  0  0  0  0  0
   -1.8164    0.2050   -0.3007 C   0  0  0  0  0  0  0  0  0  0  0  0
   -1.2451   -0.8266    0.6118 C   0  0  0  0  0  0  0  0  0  0  0  0
    0.2430   -0.9214    0.5791 C   0  0  0  0  0  0  0  0  0  0  0  0
    0.8208   -0.9917   -0.8374 C   0  0  0  0  0  0  0  0  0  0  0  0
    3.0676    0.8953   -0.1709 H   0  0  0  0  0  0  0  0  0  0  0  0
    0.7418    2.4105   -0.2468 H   0  0  0  0  0  0  0  0  0  0  0  0
   -1.5960    2.3976   -0.5312 H   0  0  0  0  0  0  0  0  0  0  0  0
   -2.8771    0.3830    0.0085 H   0  0  0  0  0  0  0  0  0  0  0  0
   -1.8812   -0.2204   -1.3343 H   0  0  0  0  0  0  0  0  0  0  0  0
   -1.5935   -0.7414    1.6651 H   0  0  0  0  0  0  0  0  0  0  0  0
   -1.6340   -1.8255    0.2516 H   0  0  0  0  0  0  0  0  0  0  0  0
    0.6702   -1.6213    1.3235 H   0  0  0  0  0  0  0  0  0  0  0  0
    1.6741   -1.6979   -0.9637 H   0  0  0  0  0  0  0  0  0  0  0  0
    0.1302   -0.9932   -1.6922 H   0  0  0  0  0  0  0  0  0  0  0  0
  1  2  2  0
  2  3  1  0
  3  4  1  0
  4  5  2  0
  5  6  1  0
  6  7  1  0
  7  8  1  0
  8  9  1  0
  8  3  1  0
  9  3  1  0
  2 10  1  0
  4 11  1  0
  5 12  1  0
  6 13  1  0
  6 14  1  0
  7 15  1  0
  7 16  1  0
  8 17  1  0
  9 18  1  0
  9 19  1  0
M  END
