
     RDKit          3D

 17 17  0  0  0  0  0  0  0  0999 V2000
   -2.2821   -1.8733   -0.2054 O   0  0  0  0  0  0  0  0  0  0  0  0
   -2.2917   -0.6531   -0.3103 C   0  0  0  0  0  0  0  0  0  0  0  0
   -1.1536    0.0608    0.3797 C   0  0  0  0  0  0  0  0  0  0  0  0
   -1.2770    1.5070    0.1853 C   0  0  0  0  0  0  0  0  0  0  0  0
   -0.5014    2.0878   -0.5338 O   0  0  0  0  0  0  0  0  0  0  0  0
    0.1140   -0.4992   -0.2101 C   0  0  0  0  0  0  0  0  0  0  0  0
    1.3158    0.1413    0.4048 C   0  0  0  0  0  0  0  0  0  0  0  0
    2.6401   -0.3403   -0.1078 C   0  0  0  0  0  0  0  0  0  0  0  0
    2.1914   -0.6184    1.1747 O   0  0  0  0  0  0  0  0  0  0  0  0
   -3.0311   -0.0927   -0.8414 H   0  0  0  0  0  0  0  0  0  0  0  0
   -1.1879   -0.2402    1.4639 H   0  0  0  0  0  0  0  0  0  0  0  0
   -2.0622    2.0471    0.6870 H   0  0  0  0  0  0  0  0  0  0  0  0
    0.1651   -1.5816   -0.0217 H   0  0  0  0  0  0  0  0  0  0  0  0
    0.1115   -0.3736   -1.3180 H   0  0  0  0  0  0  0  0  0  0  0  0
    1.2246    1.1840    0.7587 H   0  0  0  0  0  0  0  0  0  0  0  0
    3.3815    0.4633   -0.2782 H   0  0  0  0  0  0  0  0  0  0  0  0
    2.6431   -1.2191   -0.7730 H   0  0  0  0  0  0  0  0  0  0  0  0
  1  2  2  0
  2  3  1  0
  3  4  1  0
  4  5  2  0
  3  6  1  0
  6  7  1  0
  7  8  1  0
  8  9  1  0
  9  7  1  0
  2 10  1  0
  3 11  1  0
  4 12  1  0
  6 13  1  0
  6 14  1  0
  7 15  1  0
  8 16  1  0
  8 17  1  0
M  END
