
     RDKit          3D

 16 15  0  0  0  0  0  0  0  0999 V2000
   -2.9345   -1.0441   -0.4249 O   0  0  0  0  0  0  0  0  0  0  0  0
   -2.3855   -0.0485   -0.0227 C   0  0  0  0  0  0  0  0  0  0  0  0
   -1.0720    0.4461   -0.5435 C   0  0  0  0  0  0  0  0  0  0  0  0
    0.0527   -0.3297    0.1450 C   0  0  0  0  0  0  0  0  0  0  0  0
   -0.0810   -0.0899    1.5149 O   0  0  0  0  0  0  0  0  0  0  0  0
    1.3491    0.3189   -0.3743 C   0  0  0  0  0  0  0  0  0  0  0  0
    2.5469   -0.3211    0.1986 C   0  0  0  0  0  0  0  0  0  0  0  0
    2.6666   -1.5304    0.1458 O   0  0  0  0  0  0  0  0  0  0  0  0
   -2.8624    0.5243    0.7560 H   0  0  0  0  0  0  0  0  0  0  0  0
   -1.1027    0.2107   -1.6351 H   0  0  0  0  0  0  0  0  0  0  0  0
   -0.9624    1.5379   -0.4143 H   0  0  0  0  0  0  0  0  0  0  0  0
   -0.0088   -1.3797   -0.0822 H   0  0  0  0  0  0  0  0  0  0  0  0
   -1.0473   -0.1094    1.7284 H   0  0  0  0  0  0  0  0  0  0  0  0
    1.2839    0.1523   -1.4942 H   0  0  0  0  0  0  0  0  0  0  0  0
    1.2430    1.3985   -0.1589 H   0  0  0  0  0  0  0  0  0  0  0  0
    3.3145    0.2641    0.6614 H   0  0  0  0  0  0  0  0  0  0  0  0
  1  2  2  0
  2  3  1  0
  3  4  1  0
  4  5  1  0
  4  6  1  0
  6  7  1  0
  7  8  2  0
  2  9  1  0
  3 10  1  0
  3 11  1  0
  4 12  1  0
  5 13  1  0
  6 14  1  0
  6 15  1  0
  7 16  1  0
M  END
