
     RDKit          3D

 17 18  0  0  0  0  0  0  0  0999 V2000
   -2.2740   -1.1417    0.7489 O   0  0  0  0  0  0  0  0  0  0  0  0
   -2.4396    0.0486    0.8149 C   0  0  0  0  0  0  0  0  0  0  0  0
   -1.5746    0.9511    0.0476 C   0  0  0  0  0  0  0  0  0  0  0  0
   -0.5442    0.1557   -0.7553 C   0  0  0  0  0  0  0  0  0  0  0  0
    0.3798   -0.6870   -0.0898 C   0  0  0  0  0  0  0  0  0  0  0  0
    1.5935   -1.2232   -0.3736 O   0  0  0  0  0  0  0  0  0  0  0  0
    2.4229   -0.2371    0.2218 C   0  0  0  0  0  0  0  0  0  0  0  0
    1.7075    0.9842    0.1215 O   0  0  0  0  0  0  0  0  0  0  0  0
    0.7625    0.6779   -0.8024 C   0  0  0  0  0  0  0  0  0  0  0  0
   -3.2190    0.4776    1.4324 H   0  0  0  0  0  0  0  0  0  0  0  0
   -1.0739    1.6821    0.7161 H   0  0  0  0  0  0  0  0  0  0  0  0
   -2.1859    1.5236   -0.6779 H   0  0  0  0  0  0  0  0  0  0  0  0
   -1.0252   -0.2495   -1.6843 H   0  0  0  0  0  0  0  0  0  0  0  0
    0.3033   -0.6232    1.0432 H   0  0  0  0  0  0  0  0  0  0  0  0
    3.4010   -0.1799   -0.2497 H   0  0  0  0  0  0  0  0  0  0  0  0
    2.4854   -0.5374    1.2932 H   0  0  0  0  0  0  0  0  0  0  0  0
    1.2804    0.5642   -1.8067 H   0  0  0  0  0  0  0  0  0  0  0  0
  1  2  2  0
  2  3  1  0
  3  4  1  0
  4  5  1  0
  5  6  1  0
  6  7  1  0
  7  8  1  0
  8  9  1  0
  9  4  1  0
  9  5  1  0
  2 10  1  0
  3 11  1  0
  3 12  1  0
  4 13  1  0
  5 14  1  0
  7 15  1  0
  7 16  1  0
  9 17  1  0
M  END
