
     RDKit          3D

 16 17  0  0  0  0  0  0  0  0999 V2000
    1.3427    2.0003    1.0164 O   0  0  0  0  0  0  0  0  0  0  0  0
    1.4443    1.3473    0.0040 C   0  0  0  0  0  0  0  0  0  0  0  0
    0.9044    0.0017   -0.2143 C   0  0  0  0  0  0  0  0  0  0  0  0
    0.6313   -0.7882    1.0741 C   0  0  0  0  0  0  0  0  0  0  0  0
   -0.5858   -1.3620    0.3347 C   0  0  0  0  0  0  0  0  0  0  0  0
   -0.5354   -0.1308   -0.5284 C   0  0  0  0  0  0  0  0  0  0  0  0
   -1.5199    0.7694   -0.7947 C   0  0  0  0  0  0  0  0  0  0  0  0
   -1.0428   -0.1109   -1.7891 O   0  0  0  0  0  0  0  0  0  0  0  0
    1.9953    1.8051   -0.8376 H   0  0  0  0  0  0  0  0  0  0  0  0
    1.5377   -0.6574   -0.8685 H   0  0  0  0  0  0  0  0  0  0  0  0
    1.3933   -1.5120    1.3438 H   0  0  0  0  0  0  0  0  0  0  0  0
    0.2444   -0.1246    1.8801 H   0  0  0  0  0  0  0  0  0  0  0  0
   -1.5065   -1.3981    0.9510 H   0  0  0  0  0  0  0  0  0  0  0  0
   -0.3823   -2.3212   -0.1689 H   0  0  0  0  0  0  0  0  0  0  0  0
   -1.3356    1.8684   -0.9536 H   0  0  0  0  0  0  0  0  0  0  0  0
   -2.5851    0.6131   -0.4490 H   0  0  0  0  0  0  0  0  0  0  0  0
  1  2  2  0
  2  3  1  0
  3  4  1  0
  4  5  1  0
  5  6  1  0
  6  7  1  0
  7  8  1  0
  6  3  1  0
  8  6  1  0
  2  9  1  0
  3 10  1  0
  4 11  1  0
  4 12  1  0
  5 13  1  0
  5 14  1  0
  7 15  1  0
  7 16  1  0
M  END
