
     RDKit          3D

 17 18  0  0  0  0  0  0  0  0999 V2000
    2.6460    1.7308   -0.4547 O   0  0  0  0  0  0  0  0  0  0  0  0
    2.4207    0.6111    0.0567 C   0  0  0  0  0  0  0  0  0  0  0  0
    1.1015    0.0225   -0.0892 C   0  0  0  0  0  0  0  0  0  0  0  0
    0.7241   -1.1440    0.3942 C   0  0  0  0  0  0  0  0  0  0  0  0
   -0.6870   -1.4248    0.0546 C   0  0  0  0  0  0  0  0  0  0  0  0
   -1.2283   -0.1198   -0.4818 C   0  0  0  0  0  0  0  0  0  0  0  0
   -1.4760    0.9173    0.5591 C   0  0  0  0  0  0  0  0  0  0  0  0
   -0.5701    1.7464   -0.1101 O   0  0  0  0  0  0  0  0  0  0  0  0
   -0.0192    0.6812   -0.8233 C   0  0  0  0  0  0  0  0  0  0  0  0
    3.1695    0.0711    0.5994 H   0  0  0  0  0  0  0  0  0  0  0  0
    1.3501   -1.8165    0.9642 H   0  0  0  0  0  0  0  0  0  0  0  0
   -1.2143   -1.6454    1.0092 H   0  0  0  0  0  0  0  0  0  0  0  0
   -0.7430   -2.2428   -0.6631 H   0  0  0  0  0  0  0  0  0  0  0  0
   -1.9623   -0.2111   -1.2962 H   0  0  0  0  0  0  0  0  0  0  0  0
   -2.5212    1.2867    0.5684 H   0  0  0  0  0  0  0  0  0  0  0  0
   -1.1594    0.6232    1.5860 H   0  0  0  0  0  0  0  0  0  0  0  0
    0.1690    0.9140   -1.8734 H   0  0  0  0  0  0  0  0  0  0  0  0
  1  2  2  0
  2  3  1  0
  3  4  2  0
  4  5  1  0
  5  6  1  0
  6  7  1  0
  7  8  1  0
  8  9  1  0
  9  3  1  0
  9  6  1  0
  2 10  1  0
  4 11  1  0
  5 12  1  0
  5 13  1  0
  6 14  1  0
  7 15  1  0
  7 16  1  0
  9 17  1  0
M  END
