
     RDKit          3D

 19 19  0  0  0  0  0  0  0  0999 V2000
    4.1288   -0.6248    0.6151 O   0  0  0  0  0  0  0  0  0  0  0  0
    3.2958    0.1480    0.1641 C   0  0  0  0  0  0  0  0  0  0  0  0
    1.8958   -0.3372    0.1407 C   0  0  0  0  0  0  0  0  0  0  0  0
    0.9251    0.6461   -0.4188 C   0  0  0  0  0  0  0  0  0  0  0  0
   -0.4504    0.0207   -0.3806 C   0  0  0  0  0  0  0  0  0  0  0  0
   -0.8368   -0.3092    0.9186 O   0  0  0  0  0  0  0  0  0  0  0  0
   -2.1790   -0.6695    0.6883 C   0  0  0  0  0  0  0  0  0  0  0  0
   -2.6272    0.4476   -0.2208 C   0  0  0  0  0  0  0  0  0  0  0  0
   -1.4370    0.8518   -0.8551 O   0  0  0  0  0  0  0  0  0  0  0  0
    3.6005    1.1253   -0.1897 H   0  0  0  0  0  0  0  0  0  0  0  0
    1.5535   -0.6122    1.1774 H   0  0  0  0  0  0  0  0  0  0  0  0
    1.8782   -1.2400   -0.5119 H   0  0  0  0  0  0  0  0  0  0  0  0
    1.1578    0.8851   -1.4659 H   0  0  0  0  0  0  0  0  0  0  0  0
    0.8740    1.5883    0.1464 H   0  0  0  0  0  0  0  0  0  0  0  0
   -0.5009   -0.9281   -0.9653 H   0  0  0  0  0  0  0  0  0  0  0  0
   -2.1554   -1.6247    0.1062 H   0  0  0  0  0  0  0  0  0  0  0  0
   -2.7566   -0.7467    1.6111 H   0  0  0  0  0  0  0  0  0  0  0  0
   -3.3401    0.0668   -0.9797 H   0  0  0  0  0  0  0  0  0  0  0  0
   -3.0263    1.3127    0.3329 H   0  0  0  0  0  0  0  0  0  0  0  0
  1  2  2  0
  2  3  1  0
  3  4  1  0
  4  5  1  0
  5  6  1  0
  6  7  1  0
  7  8  1  0
  8  9  1  0
  9  5  1  0
  2 10  1  0
  3 11  1  0
  3 12  1  0
  4 13  1  0
  4 14  1  0
  5 15  1  0
  7 16  1  0
  7 17  1  0
  8 18  1  0
  8 19  1  0
M  END
