
     RDKit          3D

 17 18  0  0  0  0  0  0  0  0999 V2000
    2.8715    0.6747    1.3174 O   0  0  0  0  0  0  0  0  0  0  0  0
    2.2118   -0.0329    0.5926 C   0  0  0  0  0  0  0  0  0  0  0  0
    0.8319    0.2093    0.3448 C   0  0  0  0  0  0  0  0  0  0  0  0
    0.3477    0.1929   -1.1148 C   0  0  0  0  0  0  0  0  0  0  0  0
   -0.9892   -0.1144   -0.4166 C   0  0  0  0  0  0  0  0  0  0  0  0
   -1.9728   -0.6342   -1.1205 O   0  0  0  0  0  0  0  0  0  0  0  0
   -1.1477    1.1272    0.3990 C   0  0  0  0  0  0  0  0  0  0  0  0
    0.1704    1.2586    0.9132 O   0  0  0  0  0  0  0  0  0  0  0  0
   -0.1359   -0.9787    0.4862 C   0  0  0  0  0  0  0  0  0  0  0  0
    2.7155   -0.8744    0.1284 H   0  0  0  0  0  0  0  0  0  0  0  0
    0.6517   -0.6875   -1.6800 H   0  0  0  0  0  0  0  0  0  0  0  0
    0.3768    1.1687   -1.6124 H   0  0  0  0  0  0  0  0  0  0  0  0
   -2.4529   -1.3833   -0.6637 H   0  0  0  0  0  0  0  0  0  0  0  0
   -1.8841    1.0315    1.2170 H   0  0  0  0  0  0  0  0  0  0  0  0
   -1.3139    2.0416   -0.2090 H   0  0  0  0  0  0  0  0  0  0  0  0
   -0.5075   -1.1414    1.4957 H   0  0  0  0  0  0  0  0  0  0  0  0
    0.2268   -1.8578   -0.0773 H   0  0  0  0  0  0  0  0  0  0  0  0
  1  2  2  0
  2  3  1  0
  3  4  1  0
  4  5  1  0
  5  6  1  0
  5  7  1  0
  7  8  1  0
  5  9  1  0
  8  3  1  0
  9  3  1  0
  2 10  1  0
  4 11  1  0
  4 12  1  0
  6 13  1  0
  7 14  1  0
  7 15  1  0
  9 16  1  0
  9 17  1  0
M  END
