
     RDKit          3D

 13 13  0  0  0  0  0  0  0  0999 V2000
    2.3387    0.9693    0.3200 O   0  0  0  0  0  0  0  0  0  0  0  0
    1.7367   -0.0685    0.5224 C   0  0  0  0  0  0  0  0  0  0  0  0
    0.6117   -0.5610   -0.3005 C   0  0  0  0  0  0  0  0  0  0  0  0
    0.3186    0.3218   -1.3545 O   0  0  0  0  0  0  0  0  0  0  0  0
   -0.5300    1.0331   -0.4756 C   0  0  0  0  0  0  0  0  0  0  0  0
   -0.7570   -0.2712    0.2410 C   0  0  0  0  0  0  0  0  0  0  0  0
   -1.7146   -1.0252   -0.3978 O   0  0  0  0  0  0  0  0  0  0  0  0
    2.0315   -0.7020    1.3713 H   0  0  0  0  0  0  0  0  0  0  0  0
    0.7483   -1.6062   -0.5992 H   0  0  0  0  0  0  0  0  0  0  0  0
    0.0265    1.7804    0.1082 H   0  0  0  0  0  0  0  0  0  0  0  0
   -1.4493    1.4064   -0.9354 H   0  0  0  0  0  0  0  0  0  0  0  0
   -0.8461   -0.1594    1.3330 H   0  0  0  0  0  0  0  0  0  0  0  0
   -2.5149   -1.1175    0.1670 H   0  0  0  0  0  0  0  0  0  0  0  0
  1  2  2  0
  2  3  1  0
  3  4  1  0
  4  5  1  0
  5  6  1  0
  6  7  1  0
  6  3  1  0
  2  8  1  0
  3  9  1  0
  5 10  1  0
  5 11  1  0
  6 12  1  0
  7 13  1  0
M  END
