
     RDKit          3D

 17 17  0  0  0  0  0  0  0  0999 V2000
    2.6981    1.4275    0.8279 O   0  0  0  0  0  0  0  0  0  0  0  0
    2.5093    0.2310    0.7017 C   0  0  0  0  0  0  0  0  0  0  0  0
    1.7868   -0.3444   -0.4585 C   0  0  0  0  0  0  0  0  0  0  0  0
    0.2966   -0.1538   -0.3016 C   0  0  0  0  0  0  0  0  0  0  0  0
   -0.5415   -1.1554   -0.2571 C   0  0  0  0  0  0  0  0  0  0  0  0
   -1.9284   -0.6552   -0.0981 C   0  0  0  0  0  0  0  0  0  0  0  0
   -1.8040    0.8072    0.2336 C   0  0  0  0  0  0  0  0  0  0  0  0
   -0.4135    1.0990   -0.1801 C   0  0  0  0  0  0  0  0  0  0  0  0
    0.0222    2.2600   -0.3783 O   0  0  0  0  0  0  0  0  0  0  0  0
    2.8930   -0.4182    1.4792 H   0  0  0  0  0  0  0  0  0  0  0  0
    2.1200    0.1917   -1.3853 H   0  0  0  0  0  0  0  0  0  0  0  0
    2.0399   -1.4111   -0.6143 H   0  0  0  0  0  0  0  0  0  0  0  0
   -0.3214   -2.2220   -0.3213 H   0  0  0  0  0  0  0  0  0  0  0  0
   -2.4159   -1.1886    0.7405 H   0  0  0  0  0  0  0  0  0  0  0  0
   -2.4911   -0.7756   -1.0525 H   0  0  0  0  0  0  0  0  0  0  0  0
   -1.8882    0.9195    1.3488 H   0  0  0  0  0  0  0  0  0  0  0  0
   -2.5619    1.3885   -0.2845 H   0  0  0  0  0  0  0  0  0  0  0  0
  1  2  2  0
  2  3  1  0
  3  4  1  0
  4  5  2  0
  5  6  1  0
  6  7  1  0
  7  8  1  0
  8  9  2  0
  8  4  1  0
  2 10  1  0
  3 11  1  0
  3 12  1  0
  5 13  1  0
  6 14  1  0
  6 15  1  0
  7 16  1  0
  7 17  1  0
M  END
