
     RDKit          3D

 15 14  0  0  0  0  0  0  0  0999 V2000
    4.2785   -0.9688    0.5576 O   0  0  0  0  0  0  0  0  0  0  0  0
    3.7463    0.0946    0.1634 C   0  0  0  0  0  0  0  0  0  0  0  0
    2.3171    0.2612    0.1399 C   0  0  0  0  0  0  0  0  0  0  0  0
    1.1214    0.4193    0.1300 C   0  0  0  0  0  0  0  0  0  0  0  0
   -0.3531    0.6228    0.1222 C   0  0  0  0  0  0  0  0  0  0  0  0
   -0.9462   -0.7602    0.0967 C   0  0  0  0  0  0  0  0  0  0  0  0
   -2.3496   -0.6837    0.0905 O   0  0  0  0  0  0  0  0  0  0  0  0
   -3.0494   -0.0775   -0.9209 C   0  0  0  0  0  0  0  0  0  0  0  0
   -2.4482    0.4298   -1.8833 O   0  0  0  0  0  0  0  0  0  0  0  0
    4.3947    0.9188   -0.1721 H   0  0  0  0  0  0  0  0  0  0  0  0
   -0.6564    1.2502   -0.7135 H   0  0  0  0  0  0  0  0  0  0  0  0
   -0.6626    1.1696    1.0507 H   0  0  0  0  0  0  0  0  0  0  0  0
   -0.5702   -1.3518   -0.7792 H   0  0  0  0  0  0  0  0  0  0  0  0
   -0.6660   -1.3033    1.0460 H   0  0  0  0  0  0  0  0  0  0  0  0
   -4.1562   -0.0209   -0.9135 H   0  0  0  0  0  0  0  0  0  0  0  0
  1  2  2  0
  2  3  1  0
  3  4  3  0
  4  5  1  0
  5  6  1  0
  6  7  1  0
  7  8  1  0
  8  9  2  0
  2 10  1  0
  5 11  1  0
  5 12  1  0
  6 13  1  0
  6 14  1  0
  8 15  1  0
M  END
