
     RDKit          3D

 19 19  0  0  0  0  0  0  0  0999 V2000
    3.2261    0.9369    0.8492 O   0  0  0  0  0  0  0  0  0  0  0  0
    2.0621    0.6417    0.6400 C   0  0  0  0  0  0  0  0  0  0  0  0
    1.7473   -0.1400   -0.5681 C   0  0  0  0  0  0  0  0  0  0  0  0
    0.2922   -0.4464   -0.7260 C   0  0  0  0  0  0  0  0  0  0  0  0
   -0.2525   -1.2332    0.4077 C   0  0  0  0  0  0  0  0  0  0  0  0
   -1.3492   -0.8777    1.0503 C   0  0  0  0  0  0  0  0  0  0  0  0
   -2.0729    0.3484    0.6361 C   0  0  0  0  0  0  0  0  0  0  0  0
   -1.1575    1.2629    0.1489 O   0  0  0  0  0  0  0  0  0  0  0  0
   -0.5150    0.8029   -0.9890 C   0  0  0  0  0  0  0  0  0  0  0  0
    1.3292    0.9763    1.3621 H   0  0  0  0  0  0  0  0  0  0  0  0
    2.1051    0.3934   -1.4568 H   0  0  0  0  0  0  0  0  0  0  0  0
    2.2811   -1.1285   -0.4710 H   0  0  0  0  0  0  0  0  0  0  0  0
    0.1858   -1.0859   -1.6342 H   0  0  0  0  0  0  0  0  0  0  0  0
    0.2687   -2.1228    0.7116 H   0  0  0  0  0  0  0  0  0  0  0  0
   -1.6792   -1.5024    1.8623 H   0  0  0  0  0  0  0  0  0  0  0  0
   -2.6233    0.7778    1.4801 H   0  0  0  0  0  0  0  0  0  0  0  0
   -2.8372    0.1129   -0.1626 H   0  0  0  0  0  0  0  0  0  0  0  0
    0.2116    1.5949   -1.3037 H   0  0  0  0  0  0  0  0  0  0  0  0
   -1.2221    0.6888   -1.8368 H   0  0  0  0  0  0  0  0  0  0  0  0
  1  2  2  0
  2  3  1  0
  3  4  1  0
  4  5  1  0
  5  6  2  0
  6  7  1  0
  7  8  1  0
  8  9  1  0
  9  4  1  0
  2 10  1  0
  3 11  1  0
  3 12  1  0
  4 13  1  0
  5 14  1  0
  6 15  1  0
  7 16  1  0
  7 17  1  0
  9 18  1  0
  9 19  1  0
M  END
