
     RDKit          3D

 17 18  0  0  0  0  0  0  0  0999 V2000
    2.6791    0.4995    0.9011 O   0  0  0  0  0  0  0  0  0  0  0  0
    2.0340   -0.1781    0.1156 C   0  0  0  0  0  0  0  0  0  0  0  0
    0.6285   -0.5180    0.4042 C   0  0  0  0  0  0  0  0  0  0  0  0
   -0.2236   -0.9072   -0.7585 C   0  0  0  0  0  0  0  0  0  0  0  0
   -0.1132    0.5188   -1.2085 C   0  0  0  0  0  0  0  0  0  0  0  0
   -0.3512    0.6233    0.2847 C   0  0  0  0  0  0  0  0  0  0  0  0
   -0.4039    1.6668    0.9721 O   0  0  0  0  0  0  0  0  0  0  0  0
   -1.3934   -0.4316    0.0850 C   0  0  0  0  0  0  0  0  0  0  0  0
   -1.6279   -1.2567    1.1773 O   0  0  0  0  0  0  0  0  0  0  0  0
    2.5620   -0.5000   -0.7841 H   0  0  0  0  0  0  0  0  0  0  0  0
    0.4367   -1.0702    1.3457 H   0  0  0  0  0  0  0  0  0  0  0  0
   -0.1955   -1.7364   -1.3117 H   0  0  0  0  0  0  0  0  0  0  0  0
    0.8569    0.8584   -1.5655 H   0  0  0  0  0  0  0  0  0  0  0  0
   -0.9685    0.8571   -1.8190 H   0  0  0  0  0  0  0  0  0  0  0  0
    0.0454    2.4582    0.6255 H   0  0  0  0  0  0  0  0  0  0  0  0
   -2.2702   -0.1308   -0.4964 H   0  0  0  0  0  0  0  0  0  0  0  0
   -1.6950   -0.7529    2.0326 H   0  0  0  0  0  0  0  0  0  0  0  0
  1  2  2  0
  2  3  1  0
  3  4  1  0
  4  5  1  0
  5  6  1  0
  6  7  1  0
  6  8  1  0
  8  9  1  0
  6  3  1  0
  8  4  1  0
  2 10  1  0
  3 11  1  0
  4 12  1  0
  5 13  1  0
  5 14  1  0
  7 15  1  0
  8 16  1  0
  9 17  1  0
M  END
