
     RDKit          3D

 12 13  0  0  0  0  0  0  0  0999 V2000
    2.2475    0.2295    0.4088 O   0  0  0  0  0  0  0  0  0  0  0  0
    1.4095   -0.4651   -0.1397 C   0  0  0  0  0  0  0  0  0  0  0  0
    0.1734    0.2195   -0.6209 C   0  0  0  0  0  0  0  0  0  0  0  0
   -0.2255    1.3476    0.1564 C   0  0  0  0  0  0  0  0  0  0  0  0
   -1.0556    0.1716    0.3778 C   0  0  0  0  0  0  0  0  0  0  0  0
   -0.7110   -1.2374    0.0580 C   0  0  0  0  0  0  0  0  0  0  0  0
   -0.5522   -2.2866    0.6795 O   0  0  0  0  0  0  0  0  0  0  0  0
   -0.6723   -0.7391   -1.2423 O   0  0  0  0  0  0  0  0  0  0  0  0
    1.6461   -1.5044   -0.2219 H   0  0  0  0  0  0  0  0  0  0  0  0
   -0.5633    2.2651   -0.3965 H   0  0  0  0  0  0  0  0  0  0  0  0
    0.3702    1.6688    1.0629 H   0  0  0  0  0  0  0  0  0  0  0  0
   -2.0669    0.3307   -0.1221 H   0  0  0  0  0  0  0  0  0  0  0  0
  1  2  2  0
  2  3  1  0
  3  4  1  0
  4  5  1  0
  5  6  1  0
  6  7  2  0
  6  8  1  0
  5  3  1  0
  8  3  1  0
  2  9  1  0
  4 10  1  0
  4 11  1  0
  5 12  1  0
M  END
