
     RDKit          3D

 16 17  0  0  0  0  0  0  0  0999 V2000
   -0.2443   -2.3262   -0.0206 O   0  0  0  0  0  0  0  0  0  0  0  0
   -0.9511   -1.3773    0.1370 C   0  0  0  0  0  0  0  0  0  0  0  0
   -0.6993   -0.1177   -0.6172 C   0  0  0  0  0  0  0  0  0  0  0  0
   -1.4653    1.0004   -0.1691 C   0  0  0  0  0  0  0  0  0  0  0  0
   -0.1229    1.1010    0.2244 C   0  0  0  0  0  0  0  0  0  0  0  0
    0.9033    0.1904    0.8219 C   0  0  0  0  0  0  0  0  0  0  0  0
    1.4434   -0.3535   -0.5180 C   0  0  0  0  0  0  0  0  0  0  0  0
    0.3700   -0.2094   -1.4362 O   0  0  0  0  0  0  0  0  0  0  0  0
   -1.7805   -1.4889    0.8573 H   0  0  0  0  0  0  0  0  0  0  0  0
   -2.2562    0.8611    0.5843 H   0  0  0  0  0  0  0  0  0  0  0  0
   -1.8653    1.6679   -0.9908 H   0  0  0  0  0  0  0  0  0  0  0  0
    0.4806    1.8545   -0.3818 H   0  0  0  0  0  0  0  0  0  0  0  0
    1.6593    0.7575    1.3628 H   0  0  0  0  0  0  0  0  0  0  0  0
    0.5067   -0.6108    1.4445 H   0  0  0  0  0  0  0  0  0  0  0  0
    2.1943    0.4108   -0.8459 H   0  0  0  0  0  0  0  0  0  0  0  0
    1.8274   -1.3599   -0.4527 H   0  0  0  0  0  0  0  0  0  0  0  0
  1  2  2  0
  2  3  1  0
  3  4  1  0
  4  5  1  0
  5  6  1  0
  6  7  1  0
  7  8  1  0
  5  3  1  0
  8  3  1  0
  2  9  1  0
  4 10  1  0
  4 11  1  0
  5 12  1  0
  6 13  1  0
  6 14  1  0
  7 15  1  0
  7 16  1  0
M  END
