
     RDKit          3D

 19 19  0  0  0  0  0  0  0  0999 V2000
   -1.9623    2.0268   -0.0544 O   0  0  0  0  0  0  0  0  0  0  0  0
   -2.3301    0.8787   -0.0536 C   0  0  0  0  0  0  0  0  0  0  0  0
   -1.4667   -0.1635    0.5311 C   0  0  0  0  0  0  0  0  0  0  0  0
   -1.0791   -1.2053   -0.4976 C   0  0  0  0  0  0  0  0  0  0  0  0
    0.4188   -1.0027   -0.5948 C   0  0  0  0  0  0  0  0  0  0  0  0
    0.5392    0.4263   -0.0832 C   0  0  0  0  0  0  0  0  0  0  0  0
    1.9564    0.7686    0.2747 C   0  0  0  0  0  0  0  0  0  0  0  0
    2.5366   -0.1391    1.1521 O   0  0  0  0  0  0  0  0  0  0  0  0
   -0.3003    0.3837    1.0143 O   0  0  0  0  0  0  0  0  0  0  0  0
   -3.2796    0.6224   -0.4767 H   0  0  0  0  0  0  0  0  0  0  0  0
   -1.9522   -0.6961    1.3824 H   0  0  0  0  0  0  0  0  0  0  0  0
   -1.5010   -0.8793   -1.4754 H   0  0  0  0  0  0  0  0  0  0  0  0
   -1.3670   -2.2208   -0.2170 H   0  0  0  0  0  0  0  0  0  0  0  0
    0.7919   -1.0922   -1.6191 H   0  0  0  0  0  0  0  0  0  0  0  0
    0.9319   -1.7182    0.0910 H   0  0  0  0  0  0  0  0  0  0  0  0
    0.2161    1.0875   -0.8849 H   0  0  0  0  0  0  0  0  0  0  0  0
    2.5379    0.7877   -0.6782 H   0  0  0  0  0  0  0  0  0  0  0  0
    1.9644    1.8017    0.6590 H   0  0  0  0  0  0  0  0  0  0  0  0
    3.3453    0.3339    1.5304 H   0  0  0  0  0  0  0  0  0  0  0  0
  1  2  2  0
  2  3  1  0
  3  4  1  0
  4  5  1  0
  5  6  1  0
  6  7  1  0
  7  8  1  0
  6  9  1  0
  9  3  1  0
  2 10  1  0
  3 11  1  0
  4 12  1  0
  4 13  1  0
  5 14  1  0
  5 15  1  0
  6 16  1  0
  7 17  1  0
  7 18  1  0
  8 19  1  0
M  END
