
     RDKit          3D

 15 16  0  0  0  0  0  0  0  0999 V2000
    2.7019   -1.2871    0.6478 O   0  0  0  0  0  0  0  0  0  0  0  0
    2.0986   -0.2781    0.3279 C   0  0  0  0  0  0  0  0  0  0  0  0
    0.6453   -0.2536    0.4678 C   0  0  0  0  0  0  0  0  0  0  0  0
    0.0730   -1.3890    0.9563 O   0  0  0  0  0  0  0  0  0  0  0  0
   -0.2337   -1.1703   -0.3620 C   0  0  0  0  0  0  0  0  0  0  0  0
   -1.2522   -0.0714   -0.5469 C   0  0  0  0  0  0  0  0  0  0  0  0
   -2.2640   -0.1923    0.4299 O   0  0  0  0  0  0  0  0  0  0  0  0
   -0.1548    0.8803   -0.1179 C   0  0  0  0  0  0  0  0  0  0  0  0
   -0.5188    1.8230    0.8159 O   0  0  0  0  0  0  0  0  0  0  0  0
    2.6963    0.5569   -0.0496 H   0  0  0  0  0  0  0  0  0  0  0  0
    0.2825   -1.6173   -1.1933 H   0  0  0  0  0  0  0  0  0  0  0  0
   -1.6133    0.0401   -1.5681 H   0  0  0  0  0  0  0  0  0  0  0  0
   -2.3209   -1.1306    0.7438 H   0  0  0  0  0  0  0  0  0  0  0  0
    0.3304    1.3362   -1.0208 H   0  0  0  0  0  0  0  0  0  0  0  0
   -0.4703    2.7532    0.4692 H   0  0  0  0  0  0  0  0  0  0  0  0
  1  2  2  0
  2  3  1  0
  3  4  1  0
  4  5  1  0
  5  6  1  0
  6  7  1  0
  6  8  1  0
  8  9  1  0
  5  3  1  0
  8  3  1  0
  2 10  1  0
  5 11  1  0
  6 12  1  0
  7 13  1  0
  8 14  1  0
  9 15  1  0
M  END
