
     RDKit          3D

 20 20  0  0  0  0  0  0  0  0999 V2000
    4.1855    0.6102    0.3378 O   0  0  0  0  0  0  0  0  0  0  0  0
    3.1388    0.6124   -0.2808 C   0  0  0  0  0  0  0  0  0  0  0  0
    1.8674    0.0812    0.3359 C   0  0  0  0  0  0  0  0  0  0  0  0
    0.7266    0.1971   -0.6294 C   0  0  0  0  0  0  0  0  0  0  0  0
   -0.5137   -0.3456    0.0345 C   0  0  0  0  0  0  0  0  0  0  0  0
   -1.7626   -0.2914   -0.8357 C   0  0  0  0  0  0  0  0  0  0  0  0
   -2.5231    0.1208    0.4146 C   0  0  0  0  0  0  0  0  0  0  0  0
   -1.2047    0.6926    0.9287 C   0  0  0  0  0  0  0  0  0  0  0  0
    3.1395    1.0047   -1.2855 H   0  0  0  0  0  0  0  0  0  0  0  0
    2.0576   -0.9466    0.6423 H   0  0  0  0  0  0  0  0  0  0  0  0
    1.6664    0.7420    1.2049 H   0  0  0  0  0  0  0  0  0  0  0  0
    0.5271    1.2500   -0.8837 H   0  0  0  0  0  0  0  0  0  0  0  0
    0.9129   -0.4292   -1.5377 H   0  0  0  0  0  0  0  0  0  0  0  0
   -0.4121   -1.2908    0.5718 H   0  0  0  0  0  0  0  0  0  0  0  0
   -2.0314   -1.2926   -1.2316 H   0  0  0  0  0  0  0  0  0  0  0  0
   -1.6367    0.5086   -1.5869 H   0  0  0  0  0  0  0  0  0  0  0  0
   -3.3168    0.8689    0.2540 H   0  0  0  0  0  0  0  0  0  0  0  0
   -2.7790   -0.7655    1.0043 H   0  0  0  0  0  0  0  0  0  0  0  0
   -1.0255    1.7385    0.5484 H   0  0  0  0  0  0  0  0  0  0  0  0
   -1.0162    0.5396    1.9942 H   0  0  0  0  0  0  0  0  0  0  0  0
  1  2  2  0
  2  3  1  0
  3  4  1  0
  4  5  1  0
  5  6  1  0
  6  7  1  0
  7  8  1  0
  8  5  1  0
  2  9  1  0
  3 10  1  0
  3 11  1  0
  4 12  1  0
  4 13  1  0
  5 14  1  0
  6 15  1  0
  6 16  1  0
  7 17  1  0
  7 18  1  0
  8 19  1  0
  8 20  1  0
M  END
