
     RDKit          3D

 15 16  0  0  0  0  0  0  0  0999 V2000
    3.0750   -0.9279   -0.1116 O   0  0  0  0  0  0  0  0  0  0  0  0
    2.1901   -0.4653    0.5695 C   0  0  0  0  0  0  0  0  0  0  0  0
    0.8768   -0.1371   -0.0142 C   0  0  0  0  0  0  0  0  0  0  0  0
    0.6611   -0.3670   -1.3732 O   0  0  0  0  0  0  0  0  0  0  0  0
   -0.1437   -1.0635   -0.3365 C   0  0  0  0  0  0  0  0  0  0  0  0
   -1.4930   -0.4125   -0.1350 C   0  0  0  0  0  0  0  0  0  0  0  0
   -1.1410    1.0609   -0.2140 C   0  0  0  0  0  0  0  0  0  0  0  0
    0.1765    1.0825    0.4559 C   0  0  0  0  0  0  0  0  0  0  0  0
    0.5673    1.9265    1.2165 O   0  0  0  0  0  0  0  0  0  0  0  0
    2.3703   -0.2942    1.6117 H   0  0  0  0  0  0  0  0  0  0  0  0
   -0.0787   -2.1363   -0.5314 H   0  0  0  0  0  0  0  0  0  0  0  0
   -2.1908   -0.6407   -0.9734 H   0  0  0  0  0  0  0  0  0  0  0  0
   -1.9169   -0.6252    0.8423 H   0  0  0  0  0  0  0  0  0  0  0  0
   -1.0590    1.3062   -1.3000 H   0  0  0  0  0  0  0  0  0  0  0  0
   -1.8941    1.6935    0.2933 H   0  0  0  0  0  0  0  0  0  0  0  0
  1  2  2  0
  2  3  1  0
  3  4  1  0
  4  5  1  0
  5  6  1  0
  6  7  1  0
  7  8  1  0
  8  9  2  0
  5  3  1  0
  8  3  1  0
  2 10  1  0
  5 11  1  0
  6 12  1  0
  6 13  1  0
  7 14  1  0
  7 15  1  0
M  END
