
     RDKit          3D

 21 21  0  0  0  0  0  0  0  0999 V2000
    3.7978   -0.4946    0.3097 O   0  0  0  0  0  0  0  0  0  0  0  0
    2.6782    0.0081    0.3828 C   0  0  0  0  0  0  0  0  0  0  0  0
    1.6661   -0.4531   -0.5797 C   0  0  0  0  0  0  0  0  0  0  0  0
    0.3466    0.2314   -0.3903 C   0  0  0  0  0  0  0  0  0  0  0  0
   -0.6958   -0.2421   -1.3799 C   0  0  0  0  0  0  0  0  0  0  0  0
   -1.9177    0.4615   -0.7955 C   0  0  0  0  0  0  0  0  0  0  0  0
   -1.7956    0.0491    0.6552 C   0  0  0  0  0  0  0  0  0  0  0  0
   -0.3120   -0.1082    0.9284 C   0  0  0  0  0  0  0  0  0  0  0  0
    0.0873    0.7756    1.9374 O   0  0  0  0  0  0  0  0  0  0  0  0
    2.4704    0.7730    1.1507 H   0  0  0  0  0  0  0  0  0  0  0  0
    2.0244   -0.2009   -1.5985 H   0  0  0  0  0  0  0  0  0  0  0  0
    1.5164   -1.5403   -0.4961 H   0  0  0  0  0  0  0  0  0  0  0  0
    0.3898    1.3231   -0.4613 H   0  0  0  0  0  0  0  0  0  0  0  0
   -0.4880    0.0590   -2.4117 H   0  0  0  0  0  0  0  0  0  0  0  0
   -0.8708   -1.3301   -1.2536 H   0  0  0  0  0  0  0  0  0  0  0  0
   -2.8404    0.1322   -1.2707 H   0  0  0  0  0  0  0  0  0  0  0  0
   -1.7211    1.5420   -0.8685 H   0  0  0  0  0  0  0  0  0  0  0  0
   -2.3371   -0.9046    0.7683 H   0  0  0  0  0  0  0  0  0  0  0  0
   -2.2107    0.8109    1.3474 H   0  0  0  0  0  0  0  0  0  0  0  0
   -0.0741   -1.1495    1.2561 H   0  0  0  0  0  0  0  0  0  0  0  0
    0.2864    0.2576    2.7696 H   0  0  0  0  0  0  0  0  0  0  0  0
  1  2  2  0
  2  3  1  0
  3  4  1  0
  4  5  1  0
  5  6  1  0
  6  7  1  0
  7  8  1  0
  8  9  1  0
  8  4  1  0
  2 10  1  0
  3 11  1  0
  3 12  1  0
  4 13  1  0
  5 14  1  0
  5 15  1  0
  6 16  1  0
  6 17  1  0
  7 18  1  0
  7 19  1  0
  8 20  1  0
  9 21  1  0
M  END
