
     RDKit          3D

 17 18  0  0  0  0  0  0  0  0999 V2000
   -2.9636   -0.2574   -0.1013 O   0  0  0  0  0  0  0  0  0  0  0  0
   -1.8543   -0.2233    0.4256 C   0  0  0  0  0  0  0  0  0  0  0  0
   -0.6916   -0.0343   -0.4762 C   0  0  0  0  0  0  0  0  0  0  0  0
   -1.0529    0.0758   -1.7977 O   0  0  0  0  0  0  0  0  0  0  0  0
    0.1581    1.1762   -0.0362 C   0  0  0  0  0  0  0  0  0  0  0  0
    1.4779    0.4247    0.0553 C   0  0  0  0  0  0  0  0  0  0  0  0
    1.1265   -0.7267    0.9558 C   0  0  0  0  0  0  0  0  0  0  0  0
    0.3706   -1.0899   -0.2934 C   0  0  0  0  0  0  0  0  0  0  0  0
    1.4496   -0.5032   -0.9935 O   0  0  0  0  0  0  0  0  0  0  0  0
   -1.7526   -0.3276    1.4924 H   0  0  0  0  0  0  0  0  0  0  0  0
   -1.2084    0.9999   -2.0978 H   0  0  0  0  0  0  0  0  0  0  0  0
    0.1576    1.9642   -0.7836 H   0  0  0  0  0  0  0  0  0  0  0  0
   -0.1812    1.4929    0.9751 H   0  0  0  0  0  0  0  0  0  0  0  0
    2.3680    0.9791    0.2254 H   0  0  0  0  0  0  0  0  0  0  0  0
    1.9260   -1.4511    1.1417 H   0  0  0  0  0  0  0  0  0  0  0  0
    0.5274   -0.3919    1.8072 H   0  0  0  0  0  0  0  0  0  0  0  0
    0.1429   -2.1076   -0.4990 H   0  0  0  0  0  0  0  0  0  0  0  0
  1  2  2  0
  2  3  1  0
  3  4  1  0
  3  5  1  0
  5  6  1  0
  6  7  1  0
  7  8  1  0
  8  9  1  0
  8  3  1  0
  9  6  1  0
  2 10  1  0
  4 11  1  0
  5 12  1  0
  5 13  1  0
  6 14  1  0
  7 15  1  0
  7 16  1  0
  8 17  1  0
M  END
