
     RDKit          3D

 15 16  0  0  0  0  0  0  0  0999 V2000
   -2.0134   -1.0231   -1.1286 O   0  0  0  0  0  0  0  0  0  0  0  0
   -1.4952   -0.9620   -0.0340 C   0  0  0  0  0  0  0  0  0  0  0  0
   -0.9365    0.3025    0.4958 C   0  0  0  0  0  0  0  0  0  0  0  0
   -1.1456    1.4981   -0.3358 C   0  0  0  0  0  0  0  0  0  0  0  0
   -2.1903    2.0526   -0.7679 O   0  0  0  0  0  0  0  0  0  0  0  0
    0.2352    1.7593   -0.4478 O   0  0  0  0  0  0  0  0  0  0  0  0
    0.4653    0.4837    0.0174 C   0  0  0  0  0  0  0  0  0  0  0  0
    1.6318   -0.0235    0.6844 C   0  0  0  0  0  0  0  0  0  0  0  0
    1.2061   -0.5570   -0.7085 C   0  0  0  0  0  0  0  0  0  0  0  0
   -1.4231   -1.8376    0.5983 H   0  0  0  0  0  0  0  0  0  0  0  0
   -1.0090    0.4486    1.5863 H   0  0  0  0  0  0  0  0  0  0  0  0
    2.6039    0.4704    0.7613 H   0  0  0  0  0  0  0  0  0  0  0  0
    1.4643   -0.7612    1.5240 H   0  0  0  0  0  0  0  0  0  0  0  0
    1.8774   -0.2758   -1.5322 H   0  0  0  0  0  0  0  0  0  0  0  0
    0.7292   -1.5751   -0.7127 H   0  0  0  0  0  0  0  0  0  0  0  0
  1  2  2  0
  2  3  1  0
  3  4  1  0
  4  5  2  0
  4  6  1  0
  6  7  1  0
  7  8  1  0
  8  9  1  0
  7  3  1  0
  9  7  1  0
  2 10  1  0
  3 11  1  0
  8 12  1  0
  8 13  1  0
  9 14  1  0
  9 15  1  0
M  END
