
     RDKit          3D

 17 17  0  0  0  0  0  0  0  0999 V2000
   -3.0277   -0.2859    0.3392 O   0  0  0  0  0  0  0  0  0  0  0  0
   -1.9594    0.0538    0.8160 C   0  0  0  0  0  0  0  0  0  0  0  0
   -0.7335   -0.1856    0.0535 C   0  0  0  0  0  0  0  0  0  0  0  0
   -1.0401   -0.7979   -1.1549 O   0  0  0  0  0  0  0  0  0  0  0  0
    0.0271    1.0853   -0.2655 C   0  0  0  0  0  0  0  0  0  0  0  0
    1.1903    0.6412   -0.9251 O   0  0  0  0  0  0  0  0  0  0  0  0
    2.0272    0.1455    0.0484 C   0  0  0  0  0  0  0  0  0  0  0  0
    1.4291   -0.4795    1.0894 O   0  0  0  0  0  0  0  0  0  0  0  0
    0.2146   -1.0726    0.8407 C   0  0  0  0  0  0  0  0  0  0  0  0
   -2.0010    0.5204    1.7961 H   0  0  0  0  0  0  0  0  0  0  0  0
   -1.4264   -0.1453   -1.8005 H   0  0  0  0  0  0  0  0  0  0  0  0
   -0.5053    1.7637   -0.9279 H   0  0  0  0  0  0  0  0  0  0  0  0
    0.3352    1.5615    0.7024 H   0  0  0  0  0  0  0  0  0  0  0  0
    2.5878    1.0344    0.4665 H   0  0  0  0  0  0  0  0  0  0  0  0
    2.8281   -0.4932   -0.3986 H   0  0  0  0  0  0  0  0  0  0  0  0
   -0.2437   -1.2905    1.8382 H   0  0  0  0  0  0  0  0  0  0  0  0
    0.2979   -2.0553    0.3348 H   0  0  0  0  0  0  0  0  0  0  0  0
  1  2  2  0
  2  3  1  0
  3  4  1  0
  3  5  1  0
  5  6  1  0
  6  7  1  0
  7  8  1  0
  8  9  1  0
  9  3  1  0
  2 10  1  0
  4 11  1  0
  5 12  1  0
  5 13  1  0
  7 14  1  0
  7 15  1  0
  9 16  1  0
  9 17  1  0
M  END
