
     RDKit          3D

 15 16  0  0  0  0  0  0  0  0999 V2000
    2.9122   -0.0587    0.4424 O   0  0  0  0  0  0  0  0  0  0  0  0
    2.0999   -0.7200   -0.1594 C   0  0  0  0  0  0  0  0  0  0  0  0
    0.9988   -0.0346   -0.8669 C   0  0  0  0  0  0  0  0  0  0  0  0
   -0.0309    0.3526    0.1373 C   0  0  0  0  0  0  0  0  0  0  0  0
   -0.6847   -0.7056    0.9423 C   0  0  0  0  0  0  0  0  0  0  0  0
   -1.4784    0.0627   -0.0358 C   0  0  0  0  0  0  0  0  0  0  0  0
   -1.7542    1.4708    0.2987 C   0  0  0  0  0  0  0  0  0  0  0  0
   -2.7629    2.1548    0.5082 O   0  0  0  0  0  0  0  0  0  0  0  0
   -0.3965    1.7119    0.2804 O   0  0  0  0  0  0  0  0  0  0  0  0
    2.1904   -1.7861   -0.1697 H   0  0  0  0  0  0  0  0  0  0  0  0
    1.3573    0.8253   -1.4650 H   0  0  0  0  0  0  0  0  0  0  0  0
    0.5339   -0.7423   -1.5936 H   0  0  0  0  0  0  0  0  0  0  0  0
   -0.8477   -0.4589    2.0158 H   0  0  0  0  0  0  0  0  0  0  0  0
   -0.3891   -1.7317    0.7027 H   0  0  0  0  0  0  0  0  0  0  0  0
   -1.7480   -0.3400   -1.0376 H   0  0  0  0  0  0  0  0  0  0  0  0
  1  2  2  0
  2  3  1  0
  3  4  1  0
  4  5  1  0
  5  6  1  0
  6  7  1  0
  7  8  2  0
  7  9  1  0
  6  4  1  0
  9  4  1  0
  2 10  1  0
  3 11  1  0
  3 12  1  0
  5 13  1  0
  5 14  1  0
  6 15  1  0
M  END
