
     RDKit          3D

 17 18  0  0  0  0  0  0  0  0999 V2000
    2.0827    1.7898    0.4445 O   0  0  0  0  0  0  0  0  0  0  0  0
    2.1947    0.8709   -0.3584 C   0  0  0  0  0  0  0  0  0  0  0  0
    1.0653   -0.0490   -0.5158 C   0  0  0  0  0  0  0  0  0  0  0  0
   -0.2857    0.5538   -0.4293 C   0  0  0  0  0  0  0  0  0  0  0  0
   -0.5082    1.8576   -0.0972 O   0  0  0  0  0  0  0  0  0  0  0  0
   -1.4220   -0.3519   -0.8516 C   0  0  0  0  0  0  0  0  0  0  0  0
   -1.0065   -1.2731    0.2963 C   0  0  0  0  0  0  0  0  0  0  0  0
    0.1635   -0.3854    0.6120 C   0  0  0  0  0  0  0  0  0  0  0  0
    0.3573    0.1004    1.8817 O   0  0  0  0  0  0  0  0  0  0  0  0
    3.0895    0.7190   -0.9475 H   0  0  0  0  0  0  0  0  0  0  0  0
    1.1984   -0.8735   -1.2532 H   0  0  0  0  0  0  0  0  0  0  0  0
   -1.4178    1.9666    0.3213 H   0  0  0  0  0  0  0  0  0  0  0  0
   -1.1809   -0.7741   -1.8668 H   0  0  0  0  0  0  0  0  0  0  0  0
   -2.4297    0.0650   -0.7684 H   0  0  0  0  0  0  0  0  0  0  0  0
   -0.6912   -2.2504   -0.1117 H   0  0  0  0  0  0  0  0  0  0  0  0
   -1.7658   -1.3764    1.0911 H   0  0  0  0  0  0  0  0  0  0  0  0
    0.5564   -0.5894    2.5531 H   0  0  0  0  0  0  0  0  0  0  0  0
  1  2  2  0
  2  3  1  0
  3  4  1  0
  4  5  1  0
  4  6  1  0
  6  7  1  0
  7  8  1  0
  8  9  1  0
  8  3  1  0
  8  4  1  0
  2 10  1  0
  3 11  1  0
  5 12  1  0
  6 13  1  0
  6 14  1  0
  7 15  1  0
  7 16  1  0
  9 17  1  0
M  END
