
     RDKit          3D

 10  9  0  0  0  0  0  0  0  0999 V2000
   -2.0349   -0.0932    1.3583 O   0  0  0  0  0  0  0  0  0  0  0  0
   -1.9058    0.0722    0.1363 C   0  0  0  0  0  0  0  0  0  0  0  0
   -0.5738    0.0900   -0.4447 C   0  0  0  0  0  0  0  0  0  0  0  0
   -0.4016    0.2578   -1.6973 O   0  0  0  0  0  0  0  0  0  0  0  0
    0.5581   -0.0883    0.4379 C   0  0  0  0  0  0  0  0  0  0  0  0
    0.3763   -0.2504    1.6542 O   0  0  0  0  0  0  0  0  0  0  0  0
    1.8893   -0.0740   -0.1186 C   0  0  0  0  0  0  0  0  0  0  0  0
    2.1113    0.0878   -1.3462 O   0  0  0  0  0  0  0  0  0  0  0  0
   -2.7455    0.2075   -0.5404 H   0  0  0  0  0  0  0  0  0  0  0  0
    2.7267   -0.2095    0.5607 H   0  0  0  0  0  0  0  0  0  0  0  0
  1  2  2  0
  2  3  1  0
  3  4  2  0
  3  5  1  0
  5  6  2  0
  5  7  1  0
  7  8  2  0
  2  9  1  0
  7 10  1  0
M  END
