
     RDKit          3D

 15 15  0  0  0  0  0  0  0  0999 V2000
   -0.8575    2.0265   -1.1008 O   0  0  0  0  0  0  0  0  0  0  0  0
   -0.7358    1.6720    0.0583 C   0  0  0  0  0  0  0  0  0  0  0  0
   -0.3409    0.2806    0.4236 C   0  0  0  0  0  0  0  0  0  0  0  0
   -0.2484    0.0447    1.7802 O   0  0  0  0  0  0  0  0  0  0  0  0
   -1.0760   -0.8065   -0.3181 C   0  0  0  0  0  0  0  0  0  0  0  0
    0.2346   -1.4164   -0.6627 C   0  0  0  0  0  0  0  0  0  0  0  0
    0.5630   -2.5288   -1.0148 O   0  0  0  0  0  0  0  0  0  0  0  0
    0.8717   -0.1308   -0.3920 C   0  0  0  0  0  0  0  0  0  0  0  0
    1.9991   -0.1298    0.3944 O   0  0  0  0  0  0  0  0  0  0  0  0
   -0.9225    2.3976    0.8366 H   0  0  0  0  0  0  0  0  0  0  0  0
    0.3332   -0.7586    1.8916 H   0  0  0  0  0  0  0  0  0  0  0  0
   -1.6469   -1.4909    0.3291 H   0  0  0  0  0  0  0  0  0  0  0  0
   -1.6200   -0.4163   -1.2075 H   0  0  0  0  0  0  0  0  0  0  0  0
    1.0148    0.4847   -1.2999 H   0  0  0  0  0  0  0  0  0  0  0  0
    2.4313    0.7718    0.2819 H   0  0  0  0  0  0  0  0  0  0  0  0
  1  2  2  0
  2  3  1  0
  3  4  1  0
  3  5  1  0
  5  6  1  0
  6  7  2  0
  6  8  1  0
  8  9  1  0
  8  3  1  0
  2 10  1  0
  4 11  1  0
  5 12  1  0
  5 13  1  0
  8 14  1  0
  9 15  1  0
M  END
