
     RDKit          3D

 19 19  0  0  0  0  0  0  0  0999 V2000
   -0.0499    2.5608    0.4409 O   0  0  0  0  0  0  0  0  0  0  0  0
    0.1854    1.7379   -0.3955 C   0  0  0  0  0  0  0  0  0  0  0  0
    0.2062    0.2781   -0.2116 C   0  0  0  0  0  0  0  0  0  0  0  0
    1.6172   -0.2508   -0.3395 C   0  0  0  0  0  0  0  0  0  0  0  0
    2.3870    0.3620    0.6441 O   0  0  0  0  0  0  0  0  0  0  0  0
   -0.7686   -0.3941   -1.1531 C   0  0  0  0  0  0  0  0  0  0  0  0
   -1.5225   -0.9343    0.0479 C   0  0  0  0  0  0  0  0  0  0  0  0
   -0.5229   -0.2753    0.9635 C   0  0  0  0  0  0  0  0  0  0  0  0
   -1.0393    0.6128    1.8736 O   0  0  0  0  0  0  0  0  0  0  0  0
    0.4105    2.1065   -1.4105 H   0  0  0  0  0  0  0  0  0  0  0  0
    2.0154   -0.1216   -1.3555 H   0  0  0  0  0  0  0  0  0  0  0  0
    1.5876   -1.3529   -0.1314 H   0  0  0  0  0  0  0  0  0  0  0  0
    3.1861   -0.2098    0.8332 H   0  0  0  0  0  0  0  0  0  0  0  0
   -0.2662   -1.1719   -1.7602 H   0  0  0  0  0  0  0  0  0  0  0  0
   -1.4062    0.3104   -1.7204 H   0  0  0  0  0  0  0  0  0  0  0  0
   -2.5682   -0.5505    0.1456 H   0  0  0  0  0  0  0  0  0  0  0  0
   -1.5114   -2.0534    0.0667 H   0  0  0  0  0  0  0  0  0  0  0  0
    0.0826   -1.0570    1.5092 H   0  0  0  0  0  0  0  0  0  0  0  0
   -2.0229    0.4031    1.9532 H   0  0  0  0  0  0  0  0  0  0  0  0
  1  2  2  0
  2  3  1  0
  3  4  1  0
  4  5  1  0
  3  6  1  0
  6  7  1  0
  7  8  1  0
  8  9  1  0
  8  3  1  0
  2 10  1  0
  4 11  1  0
  4 12  1  0
  5 13  1  0
  6 14  1  0
  6 15  1  0
  7 16  1  0
  7 17  1  0
  8 18  1  0
  9 19  1  0
M  END
