
     RDKit          3D

 17 18  0  0  0  0  0  0  0  0999 V2000
    1.6206   -1.4308    1.1732 O   0  0  0  0  0  0  0  0  0  0  0  0
    1.9470   -0.8792    0.1431 C   0  0  0  0  0  0  0  0  0  0  0  0
    0.9994   -0.1341   -0.7004 C   0  0  0  0  0  0  0  0  0  0  0  0
   -0.3064   -0.9186   -0.9058 C   0  0  0  0  0  0  0  0  0  0  0  0
   -0.9765    0.0720   -0.0260 C   0  0  0  0  0  0  0  0  0  0  0  0
   -1.9791   -0.0630    0.9021 C   0  0  0  0  0  0  0  0  0  0  0  0
   -2.1930    0.6273   -0.3272 O   0  0  0  0  0  0  0  0  0  0  0  0
    0.2507    0.9041    0.1320 C   0  0  0  0  0  0  0  0  0  0  0  0
    0.2302    2.1732   -0.3899 O   0  0  0  0  0  0  0  0  0  0  0  0
    2.9825   -0.9465   -0.1557 H   0  0  0  0  0  0  0  0  0  0  0  0
    1.4331    0.2573   -1.6209 H   0  0  0  0  0  0  0  0  0  0  0  0
   -0.2726   -1.9173   -0.4098 H   0  0  0  0  0  0  0  0  0  0  0  0
   -0.5995   -0.9474   -1.9648 H   0  0  0  0  0  0  0  0  0  0  0  0
   -2.5764   -1.0074    1.0394 H   0  0  0  0  0  0  0  0  0  0  0  0
   -2.0297    0.5626    1.8314 H   0  0  0  0  0  0  0  0  0  0  0  0
    0.5587    0.9225    1.2097 H   0  0  0  0  0  0  0  0  0  0  0  0
    0.9111    2.7255    0.0694 H   0  0  0  0  0  0  0  0  0  0  0  0
  1  2  2  0
  2  3  1  0
  3  4  1  0
  4  5  1  0
  5  6  1  0
  6  7  1  0
  5  8  1  0
  8  9  1  0
  8  3  1  0
  7  5  1  0
  2 10  1  0
  3 11  1  0
  4 12  1  0
  4 13  1  0
  6 14  1  0
  6 15  1  0
  8 16  1  0
  9 17  1  0
M  END
