
     RDKit          3D

 17 16  0  0  0  0  0  0  0  0999 V2000
    2.8986    1.0627   -0.6196 O   0  0  0  0  0  0  0  0  0  0  0  0
    2.4573    0.0303   -0.1395 C   0  0  0  0  0  0  0  0  0  0  0  0
    1.1239    0.0297    0.5155 C   0  0  0  0  0  0  0  0  0  0  0  0
    0.0341    0.0691   -0.5290 C   0  0  0  0  0  0  0  0  0  0  0  0
    0.1236    1.2102   -1.3243 O   0  0  0  0  0  0  0  0  0  0  0  0
   -1.3417    0.0149    0.0556 C   0  0  0  0  0  0  0  0  0  0  0  0
   -1.6350    1.1275    0.8413 O   0  0  0  0  0  0  0  0  0  0  0  0
   -1.5237   -1.2541    0.7960 C   0  0  0  0  0  0  0  0  0  0  0  0
   -1.8855   -1.2904    1.9474 O   0  0  0  0  0  0  0  0  0  0  0  0
    3.0772   -0.8614   -0.2166 H   0  0  0  0  0  0  0  0  0  0  0  0
    1.0367    0.8032    1.2715 H   0  0  0  0  0  0  0  0  0  0  0  0
    1.0291   -0.9622    1.0352 H   0  0  0  0  0  0  0  0  0  0  0  0
    0.1571   -0.8149   -1.1887 H   0  0  0  0  0  0  0  0  0  0  0  0
   -0.3550    1.1258   -2.1686 H   0  0  0  0  0  0  0  0  0  0  0  0
   -2.0554   -0.0169   -0.8133 H   0  0  0  0  0  0  0  0  0  0  0  0
   -1.8189    1.9057    0.2598 H   0  0  0  0  0  0  0  0  0  0  0  0
   -1.3224   -2.1792    0.2773 H   0  0  0  0  0  0  0  0  0  0  0  0
  1  2  2  0
  2  3  1  0
  3  4  1  0
  4  5  1  0
  4  6  1  0
  6  7  1  0
  6  8  1  0
  8  9  2  0
  2 10  1  0
  3 11  1  0
  3 12  1  0
  4 13  1  0
  5 14  1  0
  6 15  1  0
  7 16  1  0
  8 17  1  0
M  END
