
     RDKit          3D

 17 17  0  0  0  0  0  0  0  0999 V2000
    3.5699   -0.9767    0.5575 O   0  0  0  0  0  0  0  0  0  0  0  0
    2.9975    0.1398    0.5110 C   0  0  0  0  0  0  0  0  0  0  0  0
    1.6484    0.2769   -0.0138 C   0  0  0  0  0  0  0  0  0  0  0  0
    1.1321    1.4184   -0.0334 O   0  0  0  0  0  0  0  0  0  0  0  0
    0.9630   -0.9445   -0.4953 C   0  0  0  0  0  0  0  0  0  0  0  0
   -0.3081   -0.6918   -0.9692 O   0  0  0  0  0  0  0  0  0  0  0  0
   -1.0609   -0.1507    0.0445 C   0  0  0  0  0  0  0  0  0  0  0  0
   -2.5314   -0.2500    0.0858 C   0  0  0  0  0  0  0  0  0  0  0  0
   -1.9022    1.0542   -0.4044 C   0  0  0  0  0  0  0  0  0  0  0  0
    3.5639    1.0031    0.8845 H   0  0  0  0  0  0  0  0  0  0  0  0
    0.9379   -1.6474    0.3892 H   0  0  0  0  0  0  0  0  0  0  0  0
    1.6015   -1.4239   -1.2705 H   0  0  0  0  0  0  0  0  0  0  0  0
   -0.5699   -0.0021    1.0418 H   0  0  0  0  0  0  0  0  0  0  0  0
   -3.1165   -0.7726   -0.7056 H   0  0  0  0  0  0  0  0  0  0  0  0
   -3.0441   -0.2484    1.0605 H   0  0  0  0  0  0  0  0  0  0  0  0
   -1.9548    1.2870   -1.4754 H   0  0  0  0  0  0  0  0  0  0  0  0
   -1.9263    1.9286    0.2553 H   0  0  0  0  0  0  0  0  0  0  0  0
  1  2  2  0
  2  3  1  0
  3  4  2  0
  3  5  1  0
  5  6  1  0
  6  7  1  0
  7  8  1  0
  8  9  1  0
  9  7  1  0
  2 10  1  0
  5 11  1  0
  5 12  1  0
  7 13  1  0
  8 14  1  0
  8 15  1  0
  9 16  1  0
  9 17  1  0
M  END
