
     RDKit          3D

 17 18  0  0  0  0  0  0  0  0999 V2000
    1.5529    2.1597    0.0434 O   0  0  0  0  0  0  0  0  0  0  0  0
    1.0093    1.2997   -0.6003 C   0  0  0  0  0  0  0  0  0  0  0  0
    0.6556    0.0182    0.0544 C   0  0  0  0  0  0  0  0  0  0  0  0
    1.8207   -0.5134    0.7976 C   0  0  0  0  0  0  0  0  0  0  0  0
    2.8026   -0.8285    0.1416 O   0  0  0  0  0  0  0  0  0  0  0  0
   -0.0496   -0.9758   -0.8280 C   0  0  0  0  0  0  0  0  0  0  0  0
   -1.3089   -0.7529   -0.0464 C   0  0  0  0  0  0  0  0  0  0  0  0
   -1.7924    0.6491    0.0887 C   0  0  0  0  0  0  0  0  0  0  0  0
   -0.6137    0.1597    0.8551 C   0  0  0  0  0  0  0  0  0  0  0  0
    0.7729    1.4342   -1.6369 H   0  0  0  0  0  0  0  0  0  0  0  0
    1.8725   -0.6429    1.8528 H   0  0  0  0  0  0  0  0  0  0  0  0
    0.3574   -1.9876   -0.8380 H   0  0  0  0  0  0  0  0  0  0  0  0
   -0.1602   -0.5392   -1.8602 H   0  0  0  0  0  0  0  0  0  0  0  0
   -1.9294   -1.6012    0.2901 H   0  0  0  0  0  0  0  0  0  0  0  0
   -2.7858    0.7561    0.5666 H   0  0  0  0  0  0  0  0  0  0  0  0
   -1.5966    1.2790   -0.8258 H   0  0  0  0  0  0  0  0  0  0  0  0
   -0.6073    0.0860    1.9454 H   0  0  0  0  0  0  0  0  0  0  0  0
  1  2  2  0
  2  3  1  0
  3  4  1  0
  4  5  2  0
  3  6  1  0
  6  7  1  0
  7  8  1  0
  8  9  1  0
  9  3  1  0
  9  7  1  0
  2 10  1  0
  4 11  1  0
  6 12  1  0
  6 13  1  0
  7 14  1  0
  8 15  1  0
  8 16  1  0
  9 17  1  0
M  END
