
     RDKit          3D

 17 19  0  0  0  0  0  0  0  0999 V2000
    2.4349   -1.1238    0.8509 O   0  0  0  0  0  0  0  0  0  0  0  0
    2.5133   -0.3457   -0.1083 C   0  0  0  0  0  0  0  0  0  0  0  0
    1.3554    0.5515   -0.3952 C   0  0  0  0  0  0  0  0  0  0  0  0
    0.7177    1.2177    0.8440 C   0  0  0  0  0  0  0  0  0  0  0  0
    0.0588    0.1299    0.1383 C   0  0  0  0  0  0  0  0  0  0  0  0
   -0.1547   -1.1232    0.6343 O   0  0  0  0  0  0  0  0  0  0  0  0
   -1.2528   -1.2434   -0.2109 C   0  0  0  0  0  0  0  0  0  0  0  0
   -2.4150   -0.3970    0.1315 C   0  0  0  0  0  0  0  0  0  0  0  0
   -1.2265    0.2120   -0.5679 C   0  0  0  0  0  0  0  0  0  0  0  0
    3.4239   -0.3529   -0.6972 H   0  0  0  0  0  0  0  0  0  0  0  0
    1.4755    1.2243   -1.2589 H   0  0  0  0  0  0  0  0  0  0  0  0
    1.1813    0.9485    1.8376 H   0  0  0  0  0  0  0  0  0  0  0  0
    0.3158    2.2419    0.7122 H   0  0  0  0  0  0  0  0  0  0  0  0
   -1.2439   -1.9275   -1.0581 H   0  0  0  0  0  0  0  0  0  0  0  0
   -3.3579   -0.4458   -0.4430 H   0  0  0  0  0  0  0  0  0  0  0  0
   -2.5097   -0.1045    1.2034 H   0  0  0  0  0  0  0  0  0  0  0  0
   -1.3162    0.5380   -1.6127 H   0  0  0  0  0  0  0  0  0  0  0  0
  1  2  2  0
  2  3  1  0
  3  4  1  0
  4  5  1  0
  5  6  1  0
  6  7  1  0
  7  8  1  0
  8  9  1  0
  5  3  1  0
  9  7  1  0
  9  5  1  0
  2 10  1  0
  3 11  1  0
  4 12  1  0
  4 13  1  0
  7 14  1  0
  8 15  1  0
  8 16  1  0
  9 17  1  0
M  END
