
     RDKit          3D

 15 15  0  0  0  0  0  0  0  0999 V2000
   -3.0025   -1.0853    0.4610 O   0  0  0  0  0  0  0  0  0  0  0  0
   -2.3781   -0.1108    0.0875 C   0  0  0  0  0  0  0  0  0  0  0  0
   -0.9288   -0.0827   -0.1246 C   0  0  0  0  0  0  0  0  0  0  0  0
   -0.3125   -1.2820    0.1402 O   0  0  0  0  0  0  0  0  0  0  0  0
    0.9999   -1.2471   -0.3125 C   0  0  0  0  0  0  0  0  0  0  0  0
    1.6284    0.0809   -0.0359 C   0  0  0  0  0  0  0  0  0  0  0  0
    2.8244    0.2014    0.0168 O   0  0  0  0  0  0  0  0  0  0  0  0
    0.7903    1.2950    0.1830 C   0  0  0  0  0  0  0  0  0  0  0  0
   -0.3928    0.8605    0.7817 O   0  0  0  0  0  0  0  0  0  0  0  0
   -2.9519    0.7903   -0.0960 H   0  0  0  0  0  0  0  0  0  0  0  0
   -0.7196    0.2585   -1.1640 H   0  0  0  0  0  0  0  0  0  0  0  0
    1.0540   -1.4364   -1.3925 H   0  0  0  0  0  0  0  0  0  0  0  0
    1.5625   -2.0187    0.2415 H   0  0  0  0  0  0  0  0  0  0  0  0
    1.2786    2.0257    0.8538 H   0  0  0  0  0  0  0  0  0  0  0  0
    0.5481    1.7506   -0.8107 H   0  0  0  0  0  0  0  0  0  0  0  0
  1  2  2  0
  2  3  1  0
  3  4  1  0
  4  5  1  0
  5  6  1  0
  6  7  2  0
  6  8  1  0
  8  9  1  0
  9  3  1  0
  2 10  1  0
  3 11  1  0
  5 12  1  0
  5 13  1  0
  8 14  1  0
  8 15  1  0
M  END
