
     RDKit          3D

 17 17  0  0  0  0  0  0  0  0999 V2000
    2.9509   -0.8896   -0.7614 O   0  0  0  0  0  0  0  0  0  0  0  0
    2.3839   -0.0909   -0.0635 C   0  0  0  0  0  0  0  0  0  0  0  0
    0.9389    0.1104   -0.2122 C   0  0  0  0  0  0  0  0  0  0  0  0
    0.1472   -1.1636   -0.0680 C   0  0  0  0  0  0  0  0  0  0  0  0
   -1.3210   -0.8489   -0.1538 C   0  0  0  0  0  0  0  0  0  0  0  0
   -1.6521    0.4218    0.5551 C   0  0  0  0  0  0  0  0  0  0  0  0
   -2.6073    0.5642    1.2808 O   0  0  0  0  0  0  0  0  0  0  0  0
   -0.6969    1.5512    0.3058 C   0  0  0  0  0  0  0  0  0  0  0  0
    0.5555    1.0791    0.7101 O   0  0  0  0  0  0  0  0  0  0  0  0
    2.9438    0.4566    0.6515 H   0  0  0  0  0  0  0  0  0  0  0  0
    0.7035    0.4763   -1.2574 H   0  0  0  0  0  0  0  0  0  0  0  0
    0.3939   -1.7948   -0.9521 H   0  0  0  0  0  0  0  0  0  0  0  0
    0.3748   -1.7226    0.8427 H   0  0  0  0  0  0  0  0  0  0  0  0
   -1.5890   -0.6643   -1.2331 H   0  0  0  0  0  0  0  0  0  0  0  0
   -1.9301   -1.6942    0.2527 H   0  0  0  0  0  0  0  0  0  0  0  0
   -0.6158    1.7489   -0.7818 H   0  0  0  0  0  0  0  0  0  0  0  0
   -0.9803    2.4606    0.8843 H   0  0  0  0  0  0  0  0  0  0  0  0
  1  2  2  0
  2  3  1  0
  3  4  1  0
  4  5  1  0
  5  6  1  0
  6  7  2  0
  6  8  1  0
  8  9  1  0
  9  3  1  0
  2 10  1  0
  3 11  1  0
  4 12  1  0
  4 13  1  0
  5 14  1  0
  5 15  1  0
  8 16  1  0
  8 17  1  0
M  END
