
     RDKit          3D

 16 16  0  0  0  0  0  0  0  0999 V2000
    2.9020   -1.1661    0.5440 O   0  0  0  0  0  0  0  0  0  0  0  0
    1.7811   -0.9559    0.1163 C   0  0  0  0  0  0  0  0  0  0  0  0
    1.0675    0.2320    0.6368 C   0  0  0  0  0  0  0  0  0  0  0  0
   -0.2995    0.4078    0.0550 C   0  0  0  0  0  0  0  0  0  0  0  0
   -1.0412    1.5874    0.5545 C   0  0  0  0  0  0  0  0  0  0  0  0
   -2.1619    1.7846    0.1178 O   0  0  0  0  0  0  0  0  0  0  0  0
   -1.0634   -0.9025   -0.1275 C   0  0  0  0  0  0  0  0  0  0  0  0
   -0.6606   -0.0840   -1.2862 C   0  0  0  0  0  0  0  0  0  0  0  0
    1.3951   -1.6486   -0.6065 H   0  0  0  0  0  0  0  0  0  0  0  0
    1.7052    1.1387    0.4531 H   0  0  0  0  0  0  0  0  0  0  0  0
    1.0222    0.1276    1.7418 H   0  0  0  0  0  0  0  0  0  0  0  0
   -0.6381    2.2830    1.2878 H   0  0  0  0  0  0  0  0  0  0  0  0
   -2.0848   -0.8898    0.2853 H   0  0  0  0  0  0  0  0  0  0  0  0
   -0.5298   -1.8535    0.0378 H   0  0  0  0  0  0  0  0  0  0  0  0
   -1.4878    0.4335   -1.8192 H   0  0  0  0  0  0  0  0  0  0  0  0
    0.0940   -0.4940   -1.9907 H   0  0  0  0  0  0  0  0  0  0  0  0
  1  2  2  0
  2  3  1  0
  3  4  1  0
  4  5  1  0
  5  6  2  0
  4  7  1  0
  7  8  1  0
  8  4  1  0
  2  9  1  0
  3 10  1  0
  3 11  1  0
  5 12  1  0
  7 13  1  0
  7 14  1  0
  8 15  1  0
  8 16  1  0
M  END
