
     RDKit          3D

 19 20  0  0  0  0  0  0  0  0999 V2000
    3.1350    0.5444    0.3358 O   0  0  0  0  0  0  0  0  0  0  0  0
    2.5384    0.0876   -0.6217 C   0  0  0  0  0  0  0  0  0  0  0  0
    1.3090   -0.7294   -0.3412 C   0  0  0  0  0  0  0  0  0  0  0  0
    0.4546    0.0924    0.5922 C   0  0  0  0  0  0  0  0  0  0  0  0
    1.0990    0.3840    1.7916 O   0  0  0  0  0  0  0  0  0  0  0  0
   -0.9537   -0.3699    0.6876 C   0  0  0  0  0  0  0  0  0  0  0  0
   -1.6697   -0.6660   -0.6000 C   0  0  0  0  0  0  0  0  0  0  0  0
   -1.5158    0.7729   -0.9914 C   0  0  0  0  0  0  0  0  0  0  0  0
   -0.5568    1.0287    0.1346 C   0  0  0  0  0  0  0  0  0  0  0  0
    2.8832    0.2720   -1.6370 H   0  0  0  0  0  0  0  0  0  0  0  0
    0.8100   -1.0043   -1.2922 H   0  0  0  0  0  0  0  0  0  0  0  0
    1.6060   -1.6819    0.1494 H   0  0  0  0  0  0  0  0  0  0  0  0
    0.6537   -0.1448    2.4895 H   0  0  0  0  0  0  0  0  0  0  0  0
   -1.4895   -0.3792    1.6444 H   0  0  0  0  0  0  0  0  0  0  0  0
   -2.7120   -1.0029   -0.3573 H   0  0  0  0  0  0  0  0  0  0  0  0
   -1.1777   -1.3784   -1.2889 H   0  0  0  0  0  0  0  0  0  0  0  0
   -1.0842    0.9828   -1.9669 H   0  0  0  0  0  0  0  0  0  0  0  0
   -2.5123    1.2862   -0.8721 H   0  0  0  0  0  0  0  0  0  0  0  0
   -0.8170    1.9058    0.7646 H   0  0  0  0  0  0  0  0  0  0  0  0
  1  2  2  0
  2  3  1  0
  3  4  1  0
  4  5  1  0
  4  6  1  0
  6  7  1  0
  7  8  1  0
  8  9  1  0
  9  4  1  0
  9  6  1  0
  2 10  1  0
  3 11  1  0
  3 12  1  0
  5 13  1  0
  6 14  1  0
  7 15  1  0
  7 16  1  0
  8 17  1  0
  8 18  1  0
  9 19  1  0
M  END
