
     RDKit          3D

 14 14  0  0  0  0  0  0  0  0999 V2000
    2.9748    1.9771   -1.4758 O   0  0  0  0  0  0  0  0  0  0  0  0
    3.1031    0.6708   -1.6783 C   0  0  0  0  0  0  0  0  0  0  0  0
    1.6305    0.1614   -1.2597 C   0  0  0  0  0  0  0  0  0  0  0  0
    0.1906   -0.3188   -0.8292 C   0  0  0  0  0  0  0  0  0  0  0  0
   -1.0678   -0.7589   -0.4457 C   0  0  0  0  0  0  0  0  0  0  0  0
   -1.2375    0.6857    0.5717 C   0  0  0  0  0  0  0  0  0  0  0  0
   -0.1544   -0.0869    1.2097 O   0  0  0  0  0  0  0  0  0  0  0  0
   -1.1778   -1.1777    0.9378 C   0  0  0  0  0  0  0  0  0  0  0  0
    3.7166    0.0919   -1.9370 H   0  0  0  0  0  0  0  0  0  0  0  0
   -1.8171   -0.5502   -1.1656 H   0  0  0  0  0  0  0  0  0  0  0  0
   -0.8764    1.4573    0.0035 H   0  0  0  0  0  0  0  0  0  0  0  0
   -2.1690    0.5929    0.9957 H   0  0  0  0  0  0  0  0  0  0  0  0
   -2.1287   -0.6731    1.4436 H   0  0  0  0  0  0  0  0  0  0  0  0
   -0.9870   -2.0715    1.3809 H   0  0  0  0  0  0  0  0  0  0  0  0
  1  2  2  0
  2  3  1  0
  3  4  3  0
  4  5  1  0
  5  6  1  0
  6  7  1  0
  7  8  1  0
  8  5  1  0
  2  9  1  0
  5 10  1  0
  6 11  1  0
  6 12  1  0
  8 13  1  0
  8 14  1  0
M  END
