
     RDKit          3D

 21 21  0  0  0  0  0  0  0  0999 V2000
    2.9198    0.9721   -0.6741 O   0  0  0  0  0  0  0  0  0  0  0  0
    1.7719    0.5911   -0.7392 C   0  0  0  0  0  0  0  0  0  0  0  0
    0.9439    0.3879    0.4716 C   0  0  0  0  0  0  0  0  0  0  0  0
    1.6562    0.6882    1.6321 O   0  0  0  0  0  0  0  0  0  0  0  0
   -0.2826    1.2719    0.4666 C   0  0  0  0  0  0  0  0  0  0  0  0
   -1.2921    0.8710   -0.5641 C   0  0  0  0  0  0  0  0  0  0  0  0
   -1.7158   -0.5737   -0.3134 C   0  0  0  0  0  0  0  0  0  0  0  0
   -0.4670   -1.4166   -0.5223 C   0  0  0  0  0  0  0  0  0  0  0  0
    0.4916   -1.0502    0.5953 C   0  0  0  0  0  0  0  0  0  0  0  0
    1.3520    0.3978   -1.7111 H   0  0  0  0  0  0  0  0  0  0  0  0
    2.4106    0.0255    1.6754 H   0  0  0  0  0  0  0  0  0  0  0  0
    0.0233    2.3236    0.2299 H   0  0  0  0  0  0  0  0  0  0  0  0
   -0.7493    1.1802    1.4610 H   0  0  0  0  0  0  0  0  0  0  0  0
   -0.9194    0.9243   -1.5988 H   0  0  0  0  0  0  0  0  0  0  0  0
   -2.1644    1.5250   -0.4642 H   0  0  0  0  0  0  0  0  0  0  0  0
   -2.5520   -0.8818   -0.9416 H   0  0  0  0  0  0  0  0  0  0  0  0
   -1.9946   -0.6980    0.7643 H   0  0  0  0  0  0  0  0  0  0  0  0
   -0.0077   -1.1712   -1.4870 H   0  0  0  0  0  0  0  0  0  0  0  0
   -0.6750   -2.4876   -0.4977 H   0  0  0  0  0  0  0  0  0  0  0  0
    1.3344   -1.7562    0.6760 H   0  0  0  0  0  0  0  0  0  0  0  0
   -0.0838   -1.1233    1.5412 H   0  0  0  0  0  0  0  0  0  0  0  0
  1  2  2  0
  2  3  1  0
  3  4  1  0
  3  5  1  0
  5  6  1  0
  6  7  1  0
  7  8  1  0
  8  9  1  0
  9  3  1  0
  2 10  1  0
  4 11  1  0
  5 12  1  0
  5 13  1  0
  6 14  1  0
  6 15  1  0
  7 16  1  0
  7 17  1  0
  8 18  1  0
  8 19  1  0
  9 20  1  0
  9 21  1  0
M  END
