
     RDKit          3D

 17 16  0  0  0  0  0  0  0  0999 V2000
    3.2023   -0.8128   -0.5662 O   0  0  0  0  0  0  0  0  0  0  0  0
    2.1696   -0.8223    0.0815 C   0  0  0  0  0  0  0  0  0  0  0  0
    1.4980    0.4514    0.3603 C   0  0  0  0  0  0  0  0  0  0  0  0
    2.2209    1.4892   -0.2068 O   0  0  0  0  0  0  0  0  0  0  0  0
    0.0886    0.5204   -0.2000 C   0  0  0  0  0  0  0  0  0  0  0  0
   -0.7665   -0.5477    0.3772 C   0  0  0  0  0  0  0  0  0  0  0  0
   -0.3587   -1.3571    1.1942 O   0  0  0  0  0  0  0  0  0  0  0  0
   -2.1882   -0.6351   -0.0614 C   0  0  0  0  0  0  0  0  0  0  0  0
   -2.4838    0.3593   -0.9911 O   0  0  0  0  0  0  0  0  0  0  0  0
    1.8008   -1.7893    0.4200 H   0  0  0  0  0  0  0  0  0  0  0  0
    1.3816    0.6211    1.4659 H   0  0  0  0  0  0  0  0  0  0  0  0
    2.3261    2.2253    0.4387 H   0  0  0  0  0  0  0  0  0  0  0  0
   -0.2986    1.5343    0.0974 H   0  0  0  0  0  0  0  0  0  0  0  0
    0.0859    0.4753   -1.3114 H   0  0  0  0  0  0  0  0  0  0  0  0
   -2.4097   -1.6554   -0.4660 H   0  0  0  0  0  0  0  0  0  0  0  0
   -2.8344   -0.4207    0.8318 H   0  0  0  0  0  0  0  0  0  0  0  0
   -3.4339    0.3643   -1.1874 H   0  0  0  0  0  0  0  0  0  0  0  0
  1  2  2  0
  2  3  1  0
  3  4  1  0
  3  5  1  0
  5  6  1  0
  6  7  2  0
  6  8  1  0
  8  9  1  0
  2 10  1  0
  3 11  1  0
  4 12  1  0
  5 13  1  0
  5 14  1  0
  8 15  1  0
  8 16  1  0
  9 17  1  0
M  END
