
     RDKit          3D

 19 20  0  0  0  0  0  0  0  0999 V2000
    2.1573    0.9941   -1.3435 O   0  0  0  0  0  0  0  0  0  0  0  0
    2.6352    0.1637   -0.6318 C   0  0  0  0  0  0  0  0  0  0  0  0
    1.9608   -0.7397    0.2774 C   0  0  0  0  0  0  0  0  0  0  0  0
    0.5012   -0.7220    0.3816 C   0  0  0  0  0  0  0  0  0  0  0  0
   -0.2813    0.4610    0.7767 C   0  0  0  0  0  0  0  0  0  0  0  0
   -1.7460    0.2436    1.0442 C   0  0  0  0  0  0  0  0  0  0  0  0
   -1.8950   -0.1526   -0.4156 C   0  0  0  0  0  0  0  0  0  0  0  0
   -2.4817    0.8709   -1.1380 O   0  0  0  0  0  0  0  0  0  0  0  0
   -0.3784   -0.0873   -0.5930 C   0  0  0  0  0  0  0  0  0  0  0  0
    3.7407    0.0907   -0.6896 H   0  0  0  0  0  0  0  0  0  0  0  0
    2.4096   -0.6357    1.3218 H   0  0  0  0  0  0  0  0  0  0  0  0
    2.2701   -1.7935   -0.0302 H   0  0  0  0  0  0  0  0  0  0  0  0
    0.0827   -1.7121    0.7675 H   0  0  0  0  0  0  0  0  0  0  0  0
    0.1372    1.4353    1.0069 H   0  0  0  0  0  0  0  0  0  0  0  0
   -1.9797   -0.5789    1.7586 H   0  0  0  0  0  0  0  0  0  0  0  0
   -2.3010    1.1748    1.3168 H   0  0  0  0  0  0  0  0  0  0  0  0
   -2.3116   -1.1567   -0.5802 H   0  0  0  0  0  0  0  0  0  0  0  0
   -2.5096    1.7364   -0.6519 H   0  0  0  0  0  0  0  0  0  0  0  0
   -0.0107    0.4080   -1.4979 H   0  0  0  0  0  0  0  0  0  0  0  0
  1  2  2  0
  2  3  1  0
  3  4  1  0
  4  5  1  0
  5  6  1  0
  6  7  1  0
  7  8  1  0
  7  9  1  0
  9  4  1  0
  9  5  1  0
  2 10  1  0
  3 11  1  0
  3 12  1  0
  4 13  1  0
  5 14  1  0
  6 15  1  0
  6 16  1  0
  7 17  1  0
  8 18  1  0
  9 19  1  0
M  END
