
     RDKit          3D

 15 15  0  0  0  0  0  0  0  0999 V2000
   -4.2021   -0.3175    2.1576 O   0  0  0  0  0  0  0  0  0  0  0  0
   -3.6650    0.0122    1.0681 C   0  0  0  0  0  0  0  0  0  0  0  0
   -2.2422    0.1879    0.9227 C   0  0  0  0  0  0  0  0  0  0  0  0
   -1.0519    0.3144    0.7968 C   0  0  0  0  0  0  0  0  0  0  0  0
    0.4060    0.4542    0.6219 C   0  0  0  0  0  0  0  0  0  0  0  0
    0.9873   -0.9110    0.5998 C   0  0  0  0  0  0  0  0  0  0  0  0
    2.0197   -0.8720   -0.2333 C   0  0  0  0  0  0  0  0  0  0  0  0
    2.0722    0.5425   -0.7313 C   0  0  0  0  0  0  0  0  0  0  0  0
    0.7133    0.9296   -0.6419 O   0  0  0  0  0  0  0  0  0  0  0  0
   -4.3253    0.1625    0.2244 H   0  0  0  0  0  0  0  0  0  0  0  0
    0.8572    1.1030    1.3959 H   0  0  0  0  0  0  0  0  0  0  0  0
    0.6513   -1.7809    1.1473 H   0  0  0  0  0  0  0  0  0  0  0  0
    2.7120   -1.6449   -0.5343 H   0  0  0  0  0  0  0  0  0  0  0  0
    2.4451    0.6134   -1.7560 H   0  0  0  0  0  0  0  0  0  0  0  0
    2.6226    1.2065   -0.0356 H   0  0  0  0  0  0  0  0  0  0  0  0
  1  2  2  0
  2  3  1  0
  3  4  3  0
  4  5  1  0
  5  6  1  0
  6  7  2  0
  7  8  1  0
  8  9  1  0
  9  5  1  0
  2 10  1  0
  5 11  1  0
  6 12  1  0
  7 13  1  0
  8 14  1  0
  8 15  1  0
M  END
