
     RDKit          3D

 19 20  0  0  0  0  0  0  0  0999 V2000
    3.3551   -0.8473   -0.6309 O   0  0  0  0  0  0  0  0  0  0  0  0
    2.1520   -1.0075   -0.4723 C   0  0  0  0  0  0  0  0  0  0  0  0
    1.2932    0.1196   -0.0873 C   0  0  0  0  0  0  0  0  0  0  0  0
    1.8852    1.3821   -0.3337 O   0  0  0  0  0  0  0  0  0  0  0  0
    0.7228    0.0442    1.3612 C   0  0  0  0  0  0  0  0  0  0  0  0
   -0.1034    0.0680    0.1641 C   0  0  0  0  0  0  0  0  0  0  0  0
   -1.0963   -0.9758   -0.1879 C   0  0  0  0  0  0  0  0  0  0  0  0
   -2.1597    0.0384    0.2804 C   0  0  0  0  0  0  0  0  0  0  0  0
   -1.1357    1.1059   -0.1381 C   0  0  0  0  0  0  0  0  0  0  0  0
    1.7998   -2.0153   -0.6363 H   0  0  0  0  0  0  0  0  0  0  0  0
    1.5319    1.6388   -1.2336 H   0  0  0  0  0  0  0  0  0  0  0  0
    0.7596    0.9674    1.9627 H   0  0  0  0  0  0  0  0  0  0  0  0
    0.8968   -0.9195    1.8883 H   0  0  0  0  0  0  0  0  0  0  0  0
   -1.2323   -1.1131   -1.2817 H   0  0  0  0  0  0  0  0  0  0  0  0
   -1.0916   -1.9052    0.3832 H   0  0  0  0  0  0  0  0  0  0  0  0
   -2.2167    0.0494    1.3992 H   0  0  0  0  0  0  0  0  0  0  0  0
   -3.0789    0.0271   -0.2841 H   0  0  0  0  0  0  0  0  0  0  0  0
   -1.2259    1.3853   -1.2012 H   0  0  0  0  0  0  0  0  0  0  0  0
   -1.0561    1.9576    0.5359 H   0  0  0  0  0  0  0  0  0  0  0  0
  1  2  2  0
  2  3  1  0
  3  4  1  0
  3  5  1  0
  5  6  1  0
  6  7  1  0
  7  8  1  0
  8  9  1  0
  6  3  1  0
  9  6  1  0
  2 10  1  0
  4 11  1  0
  5 12  1  0
  5 13  1  0
  7 14  1  0
  7 15  1  0
  8 16  1  0
  8 17  1  0
  9 18  1  0
  9 19  1  0
M  END
