
     RDKit          3D

 19 19  0  0  0  0  0  0  0  0999 V2000
    2.1878   -1.9322    0.8913 O   0  0  0  0  0  0  0  0  0  0  0  0
    1.1175   -1.9108    0.3054 C   0  0  0  0  0  0  0  0  0  0  0  0
    0.8666   -0.9317   -0.7996 C   0  0  0  0  0  0  0  0  0  0  0  0
   -0.1318    0.0568   -0.2861 C   0  0  0  0  0  0  0  0  0  0  0  0
   -1.4590   -0.5557    0.1309 C   0  0  0  0  0  0  0  0  0  0  0  0
   -2.2819    0.4440    0.5783 O   0  0  0  0  0  0  0  0  0  0  0  0
   -0.2517    1.4283   -0.8678 C   0  0  0  0  0  0  0  0  0  0  0  0
    0.4037    1.2402    0.4208 C   0  0  0  0  0  0  0  0  0  0  0  0
    1.7646    1.4435    0.4854 O   0  0  0  0  0  0  0  0  0  0  0  0
    0.3400   -2.6376    0.6191 H   0  0  0  0  0  0  0  0  0  0  0  0
    0.4872   -1.4982   -1.6693 H   0  0  0  0  0  0  0  0  0  0  0  0
    1.8257   -0.4752   -1.0967 H   0  0  0  0  0  0  0  0  0  0  0  0
   -1.2913   -1.3735    0.8400 H   0  0  0  0  0  0  0  0  0  0  0  0
   -1.9190   -0.9636   -0.8129 H   0  0  0  0  0  0  0  0  0  0  0  0
   -2.4910    0.4020    1.5333 H   0  0  0  0  0  0  0  0  0  0  0  0
    0.2751    1.5576   -1.8127 H   0  0  0  0  0  0  0  0  0  0  0  0
   -1.2432    1.9316   -0.8676 H   0  0  0  0  0  0  0  0  0  0  0  0
   -0.1298    1.5292    1.3451 H   0  0  0  0  0  0  0  0  0  0  0  0
    1.9305    2.2454    1.0631 H   0  0  0  0  0  0  0  0  0  0  0  0
  1  2  2  0
  2  3  1  0
  3  4  1  0
  4  5  1  0
  5  6  1  0
  4  7  1  0
  7  8  1  0
  8  9  1  0
  8  4  1  0
  2 10  1  0
  3 11  1  0
  3 12  1  0
  5 13  1  0
  5 14  1  0
  6 15  1  0
  7 16  1  0
  7 17  1  0
  8 18  1  0
  9 19  1  0
M  END
