
     RDKit          3D

 18 18  0  0  0  0  0  0  0  0999 V2000
    2.7824   -1.2923   -0.8305 O   0  0  0  0  0  0  0  0  0  0  0  0
    2.3383   -0.1667   -0.8665 C   0  0  0  0  0  0  0  0  0  0  0  0
    1.4897    0.3567    0.2382 C   0  0  0  0  0  0  0  0  0  0  0  0
    0.0541    0.4038   -0.1946 C   0  0  0  0  0  0  0  0  0  0  0  0
   -0.5412   -0.9076   -0.5899 C   0  0  0  0  0  0  0  0  0  0  0  0
   -2.0308   -0.5205   -0.5184 C   0  0  0  0  0  0  0  0  0  0  0  0
   -2.0888    0.1817    0.6771 O   0  0  0  0  0  0  0  0  0  0  0  0
   -0.9028    0.8744    0.8417 C   0  0  0  0  0  0  0  0  0  0  0  0
    2.5813    0.4396   -1.7307 H   0  0  0  0  0  0  0  0  0  0  0  0
    1.6514   -0.2347    1.1678 H   0  0  0  0  0  0  0  0  0  0  0  0
    1.8124    1.3932    0.4384 H   0  0  0  0  0  0  0  0  0  0  0  0
    0.0009    1.0900   -1.0630 H   0  0  0  0  0  0  0  0  0  0  0  0
   -0.4269   -1.7042    0.1715 H   0  0  0  0  0  0  0  0  0  0  0  0
   -0.2647   -1.2400   -1.6091 H   0  0  0  0  0  0  0  0  0  0  0  0
   -2.6397   -1.4309   -0.5095 H   0  0  0  0  0  0  0  0  0  0  0  0
   -2.2926    0.1744   -1.3377 H   0  0  0  0  0  0  0  0  0  0  0  0
   -0.4624    0.6046    1.8408 H   0  0  0  0  0  0  0  0  0  0  0  0
   -1.0607    1.9787    0.8262 H   0  0  0  0  0  0  0  0  0  0  0  0
  1  2  2  0
  2  3  1  0
  3  4  1  0
  4  5  1  0
  5  6  1  0
  6  7  1  0
  7  8  1  0
  8  4  1  0
  2  9  1  0
  3 10  1  0
  3 11  1  0
  4 12  1  0
  5 13  1  0
  5 14  1  0
  6 15  1  0
  6 16  1  0
  8 17  1  0
  8 18  1  0
M  END
