
     RDKit          3D

 19 19  0  0  0  0  0  0  0  0999 V2000
    2.4592   -1.6490    0.2084 O   0  0  0  0  0  0  0  0  0  0  0  0
    2.1319   -0.5258    0.4879 C   0  0  0  0  0  0  0  0  0  0  0  0
    1.5297    0.3206   -0.6008 C   0  0  0  0  0  0  0  0  0  0  0  0
    1.2067    1.5903   -0.1139 O   0  0  0  0  0  0  0  0  0  0  0  0
    0.1918   -0.3426   -0.9537 C   0  0  0  0  0  0  0  0  0  0  0  0
   -0.6224   -0.3312    0.3121 C   0  0  0  0  0  0  0  0  0  0  0  0
   -1.9872   -0.9283    0.2352 C   0  0  0  0  0  0  0  0  0  0  0  0
   -2.4376    0.1376    1.0478 O   0  0  0  0  0  0  0  0  0  0  0  0
   -1.4687    0.9261    0.3906 C   0  0  0  0  0  0  0  0  0  0  0  0
    2.2425   -0.0876    1.4675 H   0  0  0  0  0  0  0  0  0  0  0  0
    2.1414    0.3446   -1.4960 H   0  0  0  0  0  0  0  0  0  0  0  0
    1.9890    1.9749    0.3469 H   0  0  0  0  0  0  0  0  0  0  0  0
    0.3605   -1.3713   -1.3301 H   0  0  0  0  0  0  0  0  0  0  0  0
   -0.2590    0.2958   -1.7394 H   0  0  0  0  0  0  0  0  0  0  0  0
   -0.0887   -0.5555    1.2338 H   0  0  0  0  0  0  0  0  0  0  0  0
   -2.1471   -1.8750    0.8082 H   0  0  0  0  0  0  0  0  0  0  0  0
   -2.4859   -0.8692   -0.7348 H   0  0  0  0  0  0  0  0  0  0  0  0
   -1.7702    1.2623   -0.6122 H   0  0  0  0  0  0  0  0  0  0  0  0
   -0.9858    1.6831    1.0423 H   0  0  0  0  0  0  0  0  0  0  0  0
  1  2  2  0
  2  3  1  0
  3  4  1  0
  3  5  1  0
  5  6  1  0
  6  7  1  0
  7  8  1  0
  8  9  1  0
  9  6  1  0
  2 10  1  0
  3 11  1  0
  4 12  1  0
  5 13  1  0
  5 14  1  0
  6 15  1  0
  7 16  1  0
  7 17  1  0
  9 18  1  0
  9 19  1  0
M  END
