
     RDKit          3D

 16 17  0  0  0  0  0  0  0  0999 V2000
    2.7440   -1.2885    0.7786 O   0  0  0  0  0  0  0  0  0  0  0  0
    2.3559   -0.3867   -0.0189 C   0  0  0  0  0  0  0  0  0  0  0  0
    0.9873    0.0547   -0.0176 C   0  0  0  0  0  0  0  0  0  0  0  0
    0.4616    0.9770   -0.7904 C   0  0  0  0  0  0  0  0  0  0  0  0
   -0.9657    1.2037   -0.5487 C   0  0  0  0  0  0  0  0  0  0  0  0
   -1.3670    0.1132    0.3838 C   0  0  0  0  0  0  0  0  0  0  0  0
   -1.1014   -1.3062    0.1558 C   0  0  0  0  0  0  0  0  0  0  0  0
   -0.0832   -0.4571    0.8606 C   0  0  0  0  0  0  0  0  0  0  0  0
    3.0641    0.0615   -0.7147 H   0  0  0  0  0  0  0  0  0  0  0  0
    1.0213    1.5437   -1.5589 H   0  0  0  0  0  0  0  0  0  0  0  0
   -1.5188    1.1837   -1.5144 H   0  0  0  0  0  0  0  0  0  0  0  0
   -1.0787    2.1922   -0.0584 H   0  0  0  0  0  0  0  0  0  0  0  0
   -2.1292    0.3856    1.1575 H   0  0  0  0  0  0  0  0  0  0  0  0
   -1.6258   -2.0262    0.7924 H   0  0  0  0  0  0  0  0  0  0  0  0
   -0.8381   -1.7227   -0.8443 H   0  0  0  0  0  0  0  0  0  0  0  0
    0.0737   -0.5280    1.9378 H   0  0  0  0  0  0  0  0  0  0  0  0
  1  2  2  0
  2  3  1  0
  3  4  2  0
  4  5  1  0
  5  6  1  0
  6  7  1  0
  7  8  1  0
  8  3  1  0
  8  6  1  0
  2  9  1  0
  4 10  1  0
  5 11  1  0
  5 12  1  0
  6 13  1  0
  7 14  1  0
  7 15  1  0
  8 16  1  0
M  END
