
     RDKit          3D

 19 20  0  0  0  0  0  0  0  0999 V2000
    2.8150    1.1152    0.6593 O   0  0  0  0  0  0  0  0  0  0  0  0
    2.3903   -0.0139    0.4967 C   0  0  0  0  0  0  0  0  0  0  0  0
    1.3214   -0.2054   -0.5195 C   0  0  0  0  0  0  0  0  0  0  0  0
    0.9400   -1.5408   -0.5920 O   0  0  0  0  0  0  0  0  0  0  0  0
    0.1794    0.7052   -0.1671 C   0  0  0  0  0  0  0  0  0  0  0  0
   -0.4491    0.4864    1.1733 C   0  0  0  0  0  0  0  0  0  0  0  0
   -1.8004    0.2890    0.5082 C   0  0  0  0  0  0  0  0  0  0  0  0
   -1.9325   -0.7762   -0.5087 C   0  0  0  0  0  0  0  0  0  0  0  0
   -1.1288    0.4210   -0.8232 C   0  0  0  0  0  0  0  0  0  0  0  0
    2.8041   -0.8160    1.0907 H   0  0  0  0  0  0  0  0  0  0  0  0
    1.7156    0.1037   -1.5058 H   0  0  0  0  0  0  0  0  0  0  0  0
    1.7429   -2.0335   -0.9356 H   0  0  0  0  0  0  0  0  0  0  0  0
    0.4991    1.7709   -0.3619 H   0  0  0  0  0  0  0  0  0  0  0  0
   -0.0856   -0.4091    1.7301 H   0  0  0  0  0  0  0  0  0  0  0  0
   -0.4418    1.4171    1.7797 H   0  0  0  0  0  0  0  0  0  0  0  0
   -2.6489    0.9111    0.7826 H   0  0  0  0  0  0  0  0  0  0  0  0
   -1.4664   -1.7513   -0.2785 H   0  0  0  0  0  0  0  0  0  0  0  0
   -2.9064   -0.8528   -1.0097 H   0  0  0  0  0  0  0  0  0  0  0  0
   -1.5479    1.1793   -1.5186 H   0  0  0  0  0  0  0  0  0  0  0  0
  1  2  2  0
  2  3  1  0
  3  4  1  0
  3  5  1  0
  5  6  1  0
  6  7  1  0
  7  8  1  0
  8  9  1  0
  9  5  1  0
  9  7  1  0
  2 10  1  0
  3 11  1  0
  4 12  1  0
  5 13  1  0
  6 14  1  0
  6 15  1  0
  7 16  1  0
  8 17  1  0
  8 18  1  0
  9 19  1  0
M  END
