
     RDKit          3D

 19 20  0  0  0  0  0  0  0  0999 V2000
   -2.1600    1.5464    1.2716 O   0  0  0  0  0  0  0  0  0  0  0  0
   -1.8804    1.2137    0.1095 C   0  0  0  0  0  0  0  0  0  0  0  0
   -2.0977   -0.1549   -0.3671 C   0  0  0  0  0  0  0  0  0  0  0  0
   -1.0123   -1.0918    0.0290 C   0  0  0  0  0  0  0  0  0  0  0  0
    0.3571   -0.7423   -0.4868 C   0  0  0  0  0  0  0  0  0  0  0  0
    0.9918    0.5202   -0.1230 C   0  0  0  0  0  0  0  0  0  0  0  0
    2.4947    0.6922   -0.1387 C   0  0  0  0  0  0  0  0  0  0  0  0
    2.7430   -0.6512   -0.0272 O   0  0  0  0  0  0  0  0  0  0  0  0
    1.4748   -0.8455    0.4531 C   0  0  0  0  0  0  0  0  0  0  0  0
   -1.4614    1.9868   -0.5566 H   0  0  0  0  0  0  0  0  0  0  0  0
   -3.0790   -0.5349    0.0302 H   0  0  0  0  0  0  0  0  0  0  0  0
   -2.2473   -0.1342   -1.4769 H   0  0  0  0  0  0  0  0  0  0  0  0
   -0.9598   -1.0875    1.1573 H   0  0  0  0  0  0  0  0  0  0  0  0
   -1.2564   -2.1515   -0.2117 H   0  0  0  0  0  0  0  0  0  0  0  0
    0.5495   -1.1708   -1.5270 H   0  0  0  0  0  0  0  0  0  0  0  0
    0.4735    1.1773    0.6002 H   0  0  0  0  0  0  0  0  0  0  0  0
    2.8575    1.2263    0.7627 H   0  0  0  0  0  0  0  0  0  0  0  0
    2.8914    1.2008   -1.0392 H   0  0  0  0  0  0  0  0  0  0  0  0
    1.3211   -0.9989    1.5406 H   0  0  0  0  0  0  0  0  0  0  0  0
  1  2  2  0
  2  3  1  0
  3  4  1  0
  4  5  1  0
  5  6  1  0
  6  7  1  0
  7  8  1  0
  8  9  1  0
  9  5  1  0
  9  6  1  0
  2 10  1  0
  3 11  1  0
  3 12  1  0
  4 13  1  0
  4 14  1  0
  5 15  1  0
  6 16  1  0
  7 17  1  0
  7 18  1  0
  9 19  1  0
M  END
