
     RDKit          3D

 15 16  0  0  0  0  0  0  0  0999 V2000
    2.7841   -1.1876    0.5763 O   0  0  0  0  0  0  0  0  0  0  0  0
    2.3084   -0.3615   -0.2428 C   0  0  0  0  0  0  0  0  0  0  0  0
    0.9539    0.1085   -0.1111 C   0  0  0  0  0  0  0  0  0  0  0  0
    0.3172    0.9734   -0.8923 C   0  0  0  0  0  0  0  0  0  0  0  0
   -1.0674    1.0224   -0.3502 C   0  0  0  0  0  0  0  0  0  0  0  0
   -1.7532   -0.2853   -0.4989 C   0  0  0  0  0  0  0  0  0  0  0  0
   -1.1195   -1.1077    0.3210 C   0  0  0  0  0  0  0  0  0  0  0  0
   -0.0291   -0.2695    0.9262 C   0  0  0  0  0  0  0  0  0  0  0  0
   -0.7488    0.9518    1.0341 O   0  0  0  0  0  0  0  0  0  0  0  0
    2.9152   -0.0007   -1.0500 H   0  0  0  0  0  0  0  0  0  0  0  0
    0.6763    1.5360   -1.7368 H   0  0  0  0  0  0  0  0  0  0  0  0
   -1.6363    1.8839   -0.6161 H   0  0  0  0  0  0  0  0  0  0  0  0
   -2.5842   -0.4895   -1.1430 H   0  0  0  0  0  0  0  0  0  0  0  0
   -1.3768   -2.1440    0.4779 H   0  0  0  0  0  0  0  0  0  0  0  0
    0.3603   -0.6301    1.8517 H   0  0  0  0  0  0  0  0  0  0  0  0
  1  2  2  0
  2  3  1  0
  3  4  2  0
  4  5  1  0
  5  6  1  0
  6  7  2  0
  7  8  1  0
  8  9  1  0
  8  3  1  0
  9  5  1  0
  2 10  1  0
  4 11  1  0
  5 12  1  0
  6 13  1  0
  7 14  1  0
  8 15  1  0
M  END
