
     RDKit          3D

 19 20  0  0  0  0  0  0  0  0999 V2000
    2.7275    1.5388    0.6795 O   0  0  0  0  0  0  0  0  0  0  0  0
    2.3137    0.5249    0.1596 C   0  0  0  0  0  0  0  0  0  0  0  0
    0.8899    0.2374    0.1635 C   0  0  0  0  0  0  0  0  0  0  0  0
    0.3349   -0.1955   -1.1833 C   0  0  0  0  0  0  0  0  0  0  0  0
   -0.6700   -1.0116   -0.3617 C   0  0  0  0  0  0  0  0  0  0  0  0
   -1.7386   -0.1142    0.1876 C   0  0  0  0  0  0  0  0  0  0  0  0
   -1.1741    1.2772    0.3226 C   0  0  0  0  0  0  0  0  0  0  0  0
    0.1219    1.1864    0.7840 O   0  0  0  0  0  0  0  0  0  0  0  0
    0.4615   -1.1287    0.6488 C   0  0  0  0  0  0  0  0  0  0  0  0
    3.0350   -0.1321   -0.2918 H   0  0  0  0  0  0  0  0  0  0  0  0
   -0.0888    0.5760   -1.8076 H   0  0  0  0  0  0  0  0  0  0  0  0
    1.0205   -0.8968   -1.6743 H   0  0  0  0  0  0  0  0  0  0  0  0
   -0.9941   -1.9430   -0.8256 H   0  0  0  0  0  0  0  0  0  0  0  0
   -2.0426   -0.4457    1.1963 H   0  0  0  0  0  0  0  0  0  0  0  0
   -2.6082   -0.1016   -0.4807 H   0  0  0  0  0  0  0  0  0  0  0  0
   -1.7540    1.8915    1.0511 H   0  0  0  0  0  0  0  0  0  0  0  0
   -1.1644    1.8382   -0.6196 H   0  0  0  0  0  0  0  0  0  0  0  0
    1.1878   -1.9174    0.3474 H   0  0  0  0  0  0  0  0  0  0  0  0
    0.1419   -1.1836    1.7045 H   0  0  0  0  0  0  0  0  0  0  0  0
  1  2  2  0
  2  3  1  0
  3  4  1  0
  4  5  1  0
  5  6  1  0
  6  7  1  0
  7  8  1  0
  5  9  1  0
  8  3  1  0
  9  3  1  0
  2 10  1  0
  4 11  1  0
  4 12  1  0
  5 13  1  0
  6 14  1  0
  6 15  1  0
  7 16  1  0
  7 17  1  0
  9 18  1  0
  9 19  1  0
M  END
