
     RDKit          3D

 14 14  0  0  0  0  0  0  0  0999 V2000
    1.8847   -1.2682   -1.2048 O   0  0  0  0  0  0  0  0  0  0  0  0
    2.2433   -0.4358   -0.3982 C   0  0  0  0  0  0  0  0  0  0  0  0
    1.3137    0.6554   -0.0416 C   0  0  0  0  0  0  0  0  0  0  0  0
    0.0115    0.0219    0.3762 C   0  0  0  0  0  0  0  0  0  0  0  0
   -0.5009   -0.7777   -0.7652 O   0  0  0  0  0  0  0  0  0  0  0  0
   -1.2607    0.2932   -0.1615 C   0  0  0  0  0  0  0  0  0  0  0  0
   -2.4535   -0.2805    0.5200 C   0  0  0  0  0  0  0  0  0  0  0  0
   -3.5297    0.1887    0.2288 O   0  0  0  0  0  0  0  0  0  0  0  0
    3.2093   -0.4792    0.0558 H   0  0  0  0  0  0  0  0  0  0  0  0
    1.7167    1.3584    0.7309 H   0  0  0  0  0  0  0  0  0  0  0  0
    1.1364    1.2801   -0.9744 H   0  0  0  0  0  0  0  0  0  0  0  0
    0.0893   -0.5871    1.3008 H   0  0  0  0  0  0  0  0  0  0  0  0
   -1.4480    1.1061   -0.9084 H   0  0  0  0  0  0  0  0  0  0  0  0
   -2.4122   -1.0754    1.2416 H   0  0  0  0  0  0  0  0  0  0  0  0
  1  2  2  0
  2  3  1  0
  3  4  1  0
  4  5  1  0
  5  6  1  0
  6  7  1  0
  7  8  2  0
  6  4  1  0
  2  9  1  0
  3 10  1  0
  3 11  1  0
  4 12  1  0
  6 13  1  0
  7 14  1  0
M  END
