
     RDKit          3D

 15 15  0  0  0  0  0  0  0  0999 V2000
    3.4395    1.2939    0.8108 O   0  0  0  0  0  0  0  0  0  0  0  0
    3.2668    0.1897    0.2359 C   0  0  0  0  0  0  0  0  0  0  0  0
    1.9814   -0.3183   -0.1422 C   0  0  0  0  0  0  0  0  0  0  0  0
    0.8834   -0.7335   -0.4584 C   0  0  0  0  0  0  0  0  0  0  0  0
   -0.4496   -1.2165   -0.8569 C   0  0  0  0  0  0  0  0  0  0  0  0
   -1.0085   -0.3797   -1.8633 O   0  0  0  0  0  0  0  0  0  0  0  0
   -1.6213   -0.3905   -0.6196 C   0  0  0  0  0  0  0  0  0  0  0  0
   -1.4245    0.7932    0.3086 C   0  0  0  0  0  0  0  0  0  0  0  0
   -2.1400    0.5280    1.4763 O   0  0  0  0  0  0  0  0  0  0  0  0
    4.1497   -0.4063    0.0177 H   0  0  0  0  0  0  0  0  0  0  0  0
   -0.5634   -2.2961   -0.9613 H   0  0  0  0  0  0  0  0  0  0  0  0
   -2.6132   -0.8438   -0.6072 H   0  0  0  0  0  0  0  0  0  0  0  0
   -1.7972    1.7368   -0.1342 H   0  0  0  0  0  0  0  0  0  0  0  0
   -0.3472    0.8840    0.6305 H   0  0  0  0  0  0  0  0  0  0  0  0
   -1.7559    1.1590    2.1633 H   0  0  0  0  0  0  0  0  0  0  0  0
  1  2  2  0
  2  3  1  0
  3  4  3  0
  4  5  1  0
  5  6  1  0
  6  7  1  0
  7  8  1  0
  8  9  1  0
  7  5  1  0
  2 10  1  0
  5 11  1  0
  7 12  1  0
  8 13  1  0
  8 14  1  0
  9 15  1  0
M  END
