
     RDKit          3D

 17 18  0  0  0  0  0  0  0  0999 V2000
   -0.3191    2.4981    1.0366 O   0  0  0  0  0  0  0  0  0  0  0  0
   -0.9572    1.5012    0.7510 C   0  0  0  0  0  0  0  0  0  0  0  0
   -0.2164    0.3267    0.1941 C   0  0  0  0  0  0  0  0  0  0  0  0
    1.2535    0.3372    0.3849 C   0  0  0  0  0  0  0  0  0  0  0  0
    2.1517   -0.7054   -0.0351 C   0  0  0  0  0  0  0  0  0  0  0  0
    1.9441    0.4344   -0.9247 O   0  0  0  0  0  0  0  0  0  0  0  0
   -0.7828   -0.1339   -1.1481 C   0  0  0  0  0  0  0  0  0  0  0  0
   -0.8812   -0.9824    0.0682 C   0  0  0  0  0  0  0  0  0  0  0  0
   -2.1207   -1.1087    0.7140 O   0  0  0  0  0  0  0  0  0  0  0  0
   -2.0334    1.4725    0.9067 H   0  0  0  0  0  0  0  0  0  0  0  0
    1.6614    1.0846    1.1186 H   0  0  0  0  0  0  0  0  0  0  0  0
    1.8095   -1.6686   -0.4786 H   0  0  0  0  0  0  0  0  0  0  0  0
    3.1826   -0.7157    0.2910 H   0  0  0  0  0  0  0  0  0  0  0  0
    0.0228   -0.3737   -1.8717 H   0  0  0  0  0  0  0  0  0  0  0  0
   -1.6750    0.3702   -1.5619 H   0  0  0  0  0  0  0  0  0  0  0  0
   -0.2568   -1.8881    0.0770 H   0  0  0  0  0  0  0  0  0  0  0  0
   -2.7829   -0.4482    0.4305 H   0  0  0  0  0  0  0  0  0  0  0  0
  1  2  2  0
  2  3  1  0
  3  4  1  0
  4  5  1  0
  5  6  1  0
  3  7  1  0
  7  8  1  0
  8  9  1  0
  8  3  1  0
  6  4  1  0
  2 10  1  0
  4 11  1  0
  5 12  1  0
  5 13  1  0
  7 14  1  0
  7 15  1  0
  8 16  1  0
  9 17  1  0
M  END
