
     RDKit          3D

 15 16  0  0  0  0  0  0  0  0999 V2000
    2.0938    1.3435    0.9814 O   0  0  0  0  0  0  0  0  0  0  0  0
    1.7959    0.3837    0.3140 C   0  0  0  0  0  0  0  0  0  0  0  0
    0.4623    0.0439    0.0101 C   0  0  0  0  0  0  0  0  0  0  0  0
    0.0710   -1.3468   -0.3858 C   0  0  0  0  0  0  0  0  0  0  0  0
   -1.3290   -1.1941   -0.5079 O   0  0  0  0  0  0  0  0  0  0  0  0
   -1.4829    0.1625   -0.2875 C   0  0  0  0  0  0  0  0  0  0  0  0
   -0.6498    0.3754    0.9940 C   0  0  0  0  0  0  0  0  0  0  0  0
   -0.3430    0.8317   -0.9473 C   0  0  0  0  0  0  0  0  0  0  0  0
   -0.1420    1.6129   -1.8125 O   0  0  0  0  0  0  0  0  0  0  0  0
    2.6389   -0.2242   -0.0519 H   0  0  0  0  0  0  0  0  0  0  0  0
    0.5072   -1.5427   -1.3877 H   0  0  0  0  0  0  0  0  0  0  0  0
    0.3450   -2.1225    0.3256 H   0  0  0  0  0  0  0  0  0  0  0  0
   -2.4477    0.6069   -0.3078 H   0  0  0  0  0  0  0  0  0  0  0  0
   -0.6964    1.4396    1.2954 H   0  0  0  0  0  0  0  0  0  0  0  0
   -0.8233   -0.3698    1.7680 H   0  0  0  0  0  0  0  0  0  0  0  0
  1  2  2  0
  2  3  1  0
  3  4  1  0
  4  5  1  0
  5  6  1  0
  6  7  1  0
  6  8  1  0
  8  9  2  0
  7  3  1  0
  8  3  1  0
  2 10  1  0
  4 11  1  0
  4 12  1  0
  6 13  1  0
  7 14  1  0
  7 15  1  0
M  END
