
     RDKit          3D

 17 18  0  0  0  0  0  0  0  0999 V2000
    2.0461   -1.8022   -0.7729 O   0  0  0  0  0  0  0  0  0  0  0  0
    1.4801   -1.4527    0.2480 C   0  0  0  0  0  0  0  0  0  0  0  0
    1.1781   -0.0303    0.4343 C   0  0  0  0  0  0  0  0  0  0  0  0
    0.5331    0.3039    1.6166 O   0  0  0  0  0  0  0  0  0  0  0  0
   -0.5096    1.0199    1.0559 C   0  0  0  0  0  0  0  0  0  0  0  0
   -0.3054    1.9351   -0.0759 C   0  0  0  0  0  0  0  0  0  0  0  0
   -0.0019    0.5100   -0.3129 C   0  0  0  0  0  0  0  0  0  0  0  0
   -0.9592   -0.4153   -0.9978 C   0  0  0  0  0  0  0  0  0  0  0  0
   -1.5589   -1.2995   -0.0883 O   0  0  0  0  0  0  0  0  0  0  0  0
    1.2301   -2.2243    0.9674 H   0  0  0  0  0  0  0  0  0  0  0  0
    2.0976    0.6015    0.3398 H   0  0  0  0  0  0  0  0  0  0  0  0
   -1.5427    0.7760    1.3404 H   0  0  0  0  0  0  0  0  0  0  0  0
    0.5923    2.6100    0.0284 H   0  0  0  0  0  0  0  0  0  0  0  0
   -1.1821    2.4113   -0.5045 H   0  0  0  0  0  0  0  0  0  0  0  0
   -1.7377    0.1500   -1.5066 H   0  0  0  0  0  0  0  0  0  0  0  0
   -0.4038   -1.0190   -1.7604 H   0  0  0  0  0  0  0  0  0  0  0  0
   -0.9561   -2.0743   -0.0115 H   0  0  0  0  0  0  0  0  0  0  0  0
  1  2  2  0
  2  3  1  0
  3  4  1  0
  4  5  1  0
  5  6  1  0
  6  7  1  0
  7  8  1  0
  8  9  1  0
  7  3  1  0
  7  5  1  0
  2 10  1  0
  3 11  1  0
  5 12  1  0
  6 13  1  0
  6 14  1  0
  8 15  1  0
  8 16  1  0
  9 17  1  0
M  END
