
     RDKit          3D

 19 19  0  0  0  0  0  0  0  0999 V2000
    3.0564   -0.8522   -0.2377 O   0  0  0  0  0  0  0  0  0  0  0  0
    1.9119   -0.9597    0.1370 C   0  0  0  0  0  0  0  0  0  0  0  0
    0.8384   -0.2465   -0.5908 C   0  0  0  0  0  0  0  0  0  0  0  0
    0.9033    1.2033   -0.2117 C   0  0  0  0  0  0  0  0  0  0  0  0
   -0.4158    1.8426   -0.0620 C   0  0  0  0  0  0  0  0  0  0  0  0
   -1.4845    1.1872    0.3491 C   0  0  0  0  0  0  0  0  0  0  0  0
   -1.3355   -0.2595    0.6718 C   0  0  0  0  0  0  0  0  0  0  0  0
   -0.4976   -0.8745   -0.4190 C   0  0  0  0  0  0  0  0  0  0  0  0
   -0.3461   -2.2594   -0.2095 O   0  0  0  0  0  0  0  0  0  0  0  0
    1.6834   -1.5691    0.9913 H   0  0  0  0  0  0  0  0  0  0  0  0
    1.1065   -0.3250   -1.6863 H   0  0  0  0  0  0  0  0  0  0  0  0
    1.4750    1.3260    0.7540 H   0  0  0  0  0  0  0  0  0  0  0  0
    1.4963    1.7725   -0.9601 H   0  0  0  0  0  0  0  0  0  0  0  0
   -0.5250    2.8859   -0.2941 H   0  0  0  0  0  0  0  0  0  0  0  0
   -2.4203    1.6824    0.4451 H   0  0  0  0  0  0  0  0  0  0  0  0
   -0.9635   -0.4428    1.6750 H   0  0  0  0  0  0  0  0  0  0  0  0
   -2.3427   -0.7517    0.6081 H   0  0  0  0  0  0  0  0  0  0  0  0
   -1.0765   -0.7803   -1.3613 H   0  0  0  0  0  0  0  0  0  0  0  0
   -1.0635   -2.5793    0.4009 H   0  0  0  0  0  0  0  0  0  0  0  0
  1  2  2  0
  2  3  1  0
  3  4  1  0
  4  5  1  0
  5  6  2  0
  6  7  1  0
  7  8  1  0
  8  9  1  0
  8  3  1  0
  2 10  1  0
  3 11  1  0
  4 12  1  0
  4 13  1  0
  5 14  1  0
  6 15  1  0
  7 16  1  0
  7 17  1  0
  8 18  1  0
  9 19  1  0
M  END
