
     RDKit          3D

 15 16  0  0  0  0  0  0  0  0999 V2000
   -1.9799    1.7069    0.9390 O   0  0  0  0  0  0  0  0  0  0  0  0
   -0.8259    1.6660    0.4675 C   0  0  0  0  0  0  0  0  0  0  0  0
   -0.0170    0.5407    0.3640 C   0  0  0  0  0  0  0  0  0  0  0  0
    1.1860    0.8848   -0.1575 O   0  0  0  0  0  0  0  0  0  0  0  0
    1.6761   -0.1003   -0.9549 C   0  0  0  0  0  0  0  0  0  0  0  0
    1.2493   -1.2793   -0.3485 O   0  0  0  0  0  0  0  0  0  0  0  0
    0.3942   -0.7803    0.6295 C   0  0  0  0  0  0  0  0  0  0  0  0
   -0.9312   -0.5773    0.3663 C   0  0  0  0  0  0  0  0  0  0  0  0
   -1.4908   -1.0963   -0.8292 O   0  0  0  0  0  0  0  0  0  0  0  0
   -0.5305    2.6904    0.1325 H   0  0  0  0  0  0  0  0  0  0  0  0
    1.4104   -0.0351   -2.0217 H   0  0  0  0  0  0  0  0  0  0  0  0
    2.8011   -0.0966   -0.8449 H   0  0  0  0  0  0  0  0  0  0  0  0
    0.7738   -1.0152    1.6656 H   0  0  0  0  0  0  0  0  0  0  0  0
   -1.6700   -0.6388    1.1956 H   0  0  0  0  0  0  0  0  0  0  0  0
   -2.0456   -1.8696   -0.6033 H   0  0  0  0  0  0  0  0  0  0  0  0
  1  2  2  0
  2  3  1  0
  3  4  1  0
  4  5  1  0
  5  6  1  0
  6  7  1  0
  7  8  1  0
  8  9  1  0
  7  3  1  0
  8  3  1  0
  2 10  1  0
  5 11  1  0
  5 12  1  0
  7 13  1  0
  8 14  1  0
  9 15  1  0
M  END
