
     RDKit          3D

 19 19  0  0  0  0  0  0  0  0999 V2000
   -2.0498    1.5210    1.0922 O   0  0  0  0  0  0  0  0  0  0  0  0
   -2.7265    0.5312    0.8689 C   0  0  0  0  0  0  0  0  0  0  0  0
   -2.3374   -0.5569   -0.0523 C   0  0  0  0  0  0  0  0  0  0  0  0
   -1.0111   -0.3251   -0.6964 C   0  0  0  0  0  0  0  0  0  0  0  0
    0.0282   -0.2158    0.1990 O   0  0  0  0  0  0  0  0  0  0  0  0
    1.1962   -0.0048   -0.5042 C   0  0  0  0  0  0  0  0  0  0  0  0
    2.3986   -0.7777   -0.0600 C   0  0  0  0  0  0  0  0  0  0  0  0
    2.7059    0.2620    0.8443 O   0  0  0  0  0  0  0  0  0  0  0  0
    2.0636    1.1270   -0.0455 C   0  0  0  0  0  0  0  0  0  0  0  0
   -3.6938    0.4178    1.3740 H   0  0  0  0  0  0  0  0  0  0  0  0
   -2.3558   -1.5240    0.5148 H   0  0  0  0  0  0  0  0  0  0  0  0
   -3.0984   -0.6693   -0.8531 H   0  0  0  0  0  0  0  0  0  0  0  0
   -1.1010    0.5463   -1.3751 H   0  0  0  0  0  0  0  0  0  0  0  0
   -0.7976   -1.2231   -1.3395 H   0  0  0  0  0  0  0  0  0  0  0  0
    1.0619    0.0324   -1.6138 H   0  0  0  0  0  0  0  0  0  0  0  0
    2.2100   -1.7082    0.5045 H   0  0  0  0  0  0  0  0  0  0  0  0
    3.1611   -0.8313   -0.8545 H   0  0  0  0  0  0  0  0  0  0  0  0
    2.7951    1.4111   -0.8425 H   0  0  0  0  0  0  0  0  0  0  0  0
    1.5508    1.9875    0.4138 H   0  0  0  0  0  0  0  0  0  0  0  0
  1  2  2  0
  2  3  1  0
  3  4  1  0
  4  5  1  0
  5  6  1  0
  6  7  1  0
  7  8  1  0
  8  9  1  0
  9  6  1  0
  2 10  1  0
  3 11  1  0
  3 12  1  0
  4 13  1  0
  4 14  1  0
  6 15  1  0
  7 16  1  0
  7 17  1  0
  9 18  1  0
  9 19  1  0
M  END
