
     RDKit          3D

 19 19  0  0  0  0  0  0  0  0999 V2000
   -1.4216    1.8450    1.6133 O   0  0  0  0  0  0  0  0  0  0  0  0
   -1.9725    0.9758    0.9447 C   0  0  0  0  0  0  0  0  0  0  0  0
   -1.2788    0.2444   -0.1216 C   0  0  0  0  0  0  0  0  0  0  0  0
   -2.1771   -0.6695   -0.6856 O   0  0  0  0  0  0  0  0  0  0  0  0
   -0.0956   -0.5462    0.3635 C   0  0  0  0  0  0  0  0  0  0  0  0
    0.5815   -1.2792   -0.7726 C   0  0  0  0  0  0  0  0  0  0  0  0
    1.7485   -0.2864   -0.7104 C   0  0  0  0  0  0  0  0  0  0  0  0
    1.1680    0.2211    0.5970 C   0  0  0  0  0  0  0  0  0  0  0  0
    1.0666    1.5941    0.6426 O   0  0  0  0  0  0  0  0  0  0  0  0
   -3.0159    0.7848    1.1992 H   0  0  0  0  0  0  0  0  0  0  0  0
   -1.0107    0.9504   -0.9273 H   0  0  0  0  0  0  0  0  0  0  0  0
   -2.2482   -0.5964   -1.6521 H   0  0  0  0  0  0  0  0  0  0  0  0
   -0.3396   -1.1849    1.2343 H   0  0  0  0  0  0  0  0  0  0  0  0
    0.0748   -1.1701   -1.7566 H   0  0  0  0  0  0  0  0  0  0  0  0
    0.8919   -2.2851   -0.4827 H   0  0  0  0  0  0  0  0  0  0  0  0
    2.7162   -0.7905   -0.6369 H   0  0  0  0  0  0  0  0  0  0  0  0
    1.7578    0.4497   -1.5320 H   0  0  0  0  0  0  0  0  0  0  0  0
    1.7837   -0.1987    1.4338 H   0  0  0  0  0  0  0  0  0  0  0  0
    1.7710    1.9417    1.2495 H   0  0  0  0  0  0  0  0  0  0  0  0
  1  2  2  0
  2  3  1  0
  3  4  1  0
  3  5  1  0
  5  6  1  0
  6  7  1  0
  7  8  1  0
  8  9  1  0
  8  5  1  0
  2 10  1  0
  3 11  1  0
  4 12  1  0
  5 13  1  0
  6 14  1  0
  6 15  1  0
  7 16  1  0
  7 17  1  0
  8 18  1  0
  9 19  1  0
M  END
