
     RDKit          3D

 15 17  0  0  0  0  0  0  0  0999 V2000
    2.0248   -1.2744    0.5470 O   0  0  0  0  0  0  0  0  0  0  0  0
    1.6917   -0.6583   -0.4799 C   0  0  0  0  0  0  0  0  0  0  0  0
    0.4997    0.0626   -0.5098 C   0  0  0  0  0  0  0  0  0  0  0  0
   -0.8616   -0.3794   -0.8954 C   0  0  0  0  0  0  0  0  0  0  0  0
   -1.4228   -0.7854    0.4195 C   0  0  0  0  0  0  0  0  0  0  0  0
   -0.8300   -0.0892    1.3727 C   0  0  0  0  0  0  0  0  0  0  0  0
    0.1774    0.8442    0.8104 C   0  0  0  0  0  0  0  0  0  0  0  0
    0.0404    1.3824   -0.5495 C   0  0  0  0  0  0  0  0  0  0  0  0
   -1.1281    0.9769   -1.2139 O   0  0  0  0  0  0  0  0  0  0  0  0
    2.4172   -0.7570   -1.2969 H   0  0  0  0  0  0  0  0  0  0  0  0
   -0.9810   -1.0756   -1.7206 H   0  0  0  0  0  0  0  0  0  0  0  0
   -2.1881   -1.5295    0.5437 H   0  0  0  0  0  0  0  0  0  0  0  0
   -1.0297   -0.1657    2.4325 H   0  0  0  0  0  0  0  0  0  0  0  0
    1.0494    1.1390    1.4146 H   0  0  0  0  0  0  0  0  0  0  0  0
    0.5405    2.3095   -0.8745 H   0  0  0  0  0  0  0  0  0  0  0  0
  1  2  2  0
  2  3  1  0
  3  4  1  0
  4  5  1  0
  5  6  2  0
  6  7  1  0
  7  8  1  0
  8  9  1  0
  7  3  1  0
  8  3  1  0
  9  4  1  0
  2 10  1  0
  4 11  1  0
  5 12  1  0
  6 13  1  0
  7 14  1  0
  8 15  1  0
M  END
