
     RDKit          3D

 21 20  0  0  0  0  0  0  0  0999 V2000
   -2.6218   -0.1468   -1.8688 O   0  0  0  0  0  0  0  0  0  0  0  0
   -2.5184   -0.2402   -0.6656 C   0  0  0  0  0  0  0  0  0  0  0  0
   -1.5620    0.6643    0.0456 C   0  0  0  0  0  0  0  0  0  0  0  0
   -0.9118    1.5072   -0.8131 O   0  0  0  0  0  0  0  0  0  0  0  0
   -0.7068   -0.0944    1.0005 C   0  0  0  0  0  0  0  0  0  0  0  0
    0.1451   -1.1594    0.4300 C   0  0  0  0  0  0  0  0  0  0  0  0
    1.1839   -0.7686   -0.5500 C   0  0  0  0  0  0  0  0  0  0  0  0
    2.2514    0.1497   -0.0522 C   0  0  0  0  0  0  0  0  0  0  0  0
    1.8515    1.3611    0.4253 O   0  0  0  0  0  0  0  0  0  0  0  0
   -3.1155   -0.9685   -0.1455 H   0  0  0  0  0  0  0  0  0  0  0  0
   -2.2276    1.3222    0.6826 H   0  0  0  0  0  0  0  0  0  0  0  0
   -1.0363    2.4669   -0.6193 H   0  0  0  0  0  0  0  0  0  0  0  0
   -0.1679    0.6424    1.6295 H   0  0  0  0  0  0  0  0  0  0  0  0
   -1.4149   -0.6047    1.7193 H   0  0  0  0  0  0  0  0  0  0  0  0
    0.6408   -1.6802    1.2886 H   0  0  0  0  0  0  0  0  0  0  0  0
   -0.5130   -1.9196   -0.0369 H   0  0  0  0  0  0  0  0  0  0  0  0
    0.7416   -0.4182   -1.5105 H   0  0  0  0  0  0  0  0  0  0  0  0
    1.7173   -1.7249   -0.8382 H   0  0  0  0  0  0  0  0  0  0  0  0
    2.9182   -0.4108    0.6424 H   0  0  0  0  0  0  0  0  0  0  0  0
    2.9145    0.3609   -0.9416 H   0  0  0  0  0  0  0  0  0  0  0  0
    2.4318    1.6616    1.1573 H   0  0  0  0  0  0  0  0  0  0  0  0
  1  2  2  0
  2  3  1  0
  3  4  1  0
  3  5  1  0
  5  6  1  0
  6  7  1  0
  7  8  1  0
  8  9  1  0
  2 10  1  0
  3 11  1  0
  4 12  1  0
  5 13  1  0
  5 14  1  0
  6 15  1  0
  6 16  1  0
  7 17  1  0
  7 18  1  0
  8 19  1  0
  8 20  1  0
  9 21  1  0
M  END
