
     RDKit          3D

 18 19  0  0  0  0  0  0  0  0999 V2000
    2.7527   -0.0941   -1.3308 O   0  0  0  0  0  0  0  0  0  0  0  0
    2.6654   -0.0659   -0.1184 C   0  0  0  0  0  0  0  0  0  0  0  0
    1.3608   -0.0662    0.5971 C   0  0  0  0  0  0  0  0  0  0  0  0
    0.2714   -0.8223    0.0059 C   0  0  0  0  0  0  0  0  0  0  0  0
   -1.0512   -0.9186   -0.5237 C   0  0  0  0  0  0  0  0  0  0  0  0
   -1.8599    0.3291   -0.3294 C   0  0  0  0  0  0  0  0  0  0  0  0
   -0.9960    1.0176    0.7338 C   0  0  0  0  0  0  0  0  0  0  0  0
    0.3175    0.5859    0.0609 C   0  0  0  0  0  0  0  0  0  0  0  0
    3.5812   -0.0401    0.4402 H   0  0  0  0  0  0  0  0  0  0  0  0
    1.5194   -0.0367    1.7255 H   0  0  0  0  0  0  0  0  0  0  0  0
    0.6933   -1.8068    0.1248 H   0  0  0  0  0  0  0  0  0  0  0  0
   -1.0362   -1.2102   -1.6130 H   0  0  0  0  0  0  0  0  0  0  0  0
   -1.6665   -1.7338   -0.0369 H   0  0  0  0  0  0  0  0  0  0  0  0
   -2.8817    0.1642    0.0204 H   0  0  0  0  0  0  0  0  0  0  0  0
   -1.8023    0.9517   -1.2513 H   0  0  0  0  0  0  0  0  0  0  0  0
   -1.1191    2.0973    0.7354 H   0  0  0  0  0  0  0  0  0  0  0  0
   -1.1518    0.5123    1.6879 H   0  0  0  0  0  0  0  0  0  0  0  0
    0.4030    1.1369   -0.9284 H   0  0  0  0  0  0  0  0  0  0  0  0
  1  2  2  0
  2  3  1  0
  3  4  1  0
  4  5  1  0
  5  6  1  0
  6  7  1  0
  7  8  1  0
  8  3  1  0
  8  4  1  0
  2  9  1  0
  3 10  1  0
  4 11  1  0
  5 12  1  0
  5 13  1  0
  6 14  1  0
  6 15  1  0
  7 16  1  0
  7 17  1  0
  8 18  1  0
M  END
