
     RDKit          3D

 17 17  0  0  0  0  0  0  0  0999 V2000
    2.9237    0.4600   -0.0683 O   0  0  0  0  0  0  0  0  0  0  0  0
    1.7983    0.7052    0.3145 C   0  0  0  0  0  0  0  0  0  0  0  0
    0.6850   -0.1462   -0.1732 C   0  0  0  0  0  0  0  0  0  0  0  0
    1.1240   -1.1372   -1.0319 O   0  0  0  0  0  0  0  0  0  0  0  0
   -0.3060    0.7898   -0.8619 C   0  0  0  0  0  0  0  0  0  0  0  0
   -1.6622    0.2051   -0.5311 C   0  0  0  0  0  0  0  0  0  0  0  0
   -1.4547   -0.2864    0.8509 C   0  0  0  0  0  0  0  0  0  0  0  0
   -2.2928   -0.2562    1.7336 O   0  0  0  0  0  0  0  0  0  0  0  0
   -0.0691   -0.8073    0.9493 C   0  0  0  0  0  0  0  0  0  0  0  0
    1.6644    1.5308    0.9910 H   0  0  0  0  0  0  0  0  0  0  0  0
    1.9837   -1.5092   -0.7373 H   0  0  0  0  0  0  0  0  0  0  0  0
   -0.2512    1.8189   -0.4420 H   0  0  0  0  0  0  0  0  0  0  0  0
   -0.0785    0.7551   -1.9440 H   0  0  0  0  0  0  0  0  0  0  0  0
   -1.9396   -0.6224   -1.2345 H   0  0  0  0  0  0  0  0  0  0  0  0
   -2.3906    1.0342   -0.5914 H   0  0  0  0  0  0  0  0  0  0  0  0
   -0.1019   -1.9228    0.8363 H   0  0  0  0  0  0  0  0  0  0  0  0
    0.3674   -0.6113    1.9399 H   0  0  0  0  0  0  0  0  0  0  0  0
  1  2  2  0
  2  3  1  0
  3  4  1  0
  3  5  1  0
  5  6  1  0
  6  7  1  0
  7  8  2  0
  7  9  1  0
  9  3  1  0
  2 10  1  0
  4 11  1  0
  5 12  1  0
  5 13  1  0
  6 14  1  0
  6 15  1  0
  9 16  1  0
  9 17  1  0
M  END
