
     RDKit          3D

 15 15  0  0  0  0  0  0  0  0999 V2000
    2.9123    0.2180   -1.1700 O   0  0  0  0  0  0  0  0  0  0  0  0
    2.3215   -0.1275   -0.1722 C   0  0  0  0  0  0  0  0  0  0  0  0
    0.9305    0.2033    0.0232 C   0  0  0  0  0  0  0  0  0  0  0  0
    0.3556    0.9426   -1.0303 O   0  0  0  0  0  0  0  0  0  0  0  0
   -0.9611    1.0729   -0.5506 C   0  0  0  0  0  0  0  0  0  0  0  0
   -1.3385   -0.3089   -0.0284 C   0  0  0  0  0  0  0  0  0  0  0  0
   -1.8129   -0.2265    1.2828 O   0  0  0  0  0  0  0  0  0  0  0  0
    0.0023   -0.9591    0.0429 C   0  0  0  0  0  0  0  0  0  0  0  0
    0.2644   -2.1449    0.1022 O   0  0  0  0  0  0  0  0  0  0  0  0
    2.8580   -0.6902    0.5713 H   0  0  0  0  0  0  0  0  0  0  0  0
    0.7155    0.7933    0.9387 H   0  0  0  0  0  0  0  0  0  0  0  0
   -1.6535    1.4310   -1.3173 H   0  0  0  0  0  0  0  0  0  0  0  0
   -0.8971    1.7618    0.3202 H   0  0  0  0  0  0  0  0  0  0  0  0
   -2.0226   -0.8421   -0.7031 H   0  0  0  0  0  0  0  0  0  0  0  0
   -1.6743   -1.1239    1.6905 H   0  0  0  0  0  0  0  0  0  0  0  0
  1  2  2  0
  2  3  1  0
  3  4  1  0
  4  5  1  0
  5  6  1  0
  6  7  1  0
  6  8  1  0
  8  9  2  0
  8  3  1  0
  2 10  1  0
  3 11  1  0
  5 12  1  0
  5 13  1  0
  6 14  1  0
  7 15  1  0
M  END
