
     RDKit          3D

 17 19  0  0  0  0  0  0  0  0999 V2000
   -2.2617   -1.8964   -0.8494 O   0  0  0  0  0  0  0  0  0  0  0  0
   -1.6846   -1.2893    0.0065 C   0  0  0  0  0  0  0  0  0  0  0  0
   -0.6716   -0.2767   -0.3703 C   0  0  0  0  0  0  0  0  0  0  0  0
   -0.9834    1.1540   -0.4439 C   0  0  0  0  0  0  0  0  0  0  0  0
   -0.3528    0.7200    0.8046 C   0  0  0  0  0  0  0  0  0  0  0  0
    1.1022    0.3848    0.9180 C   0  0  0  0  0  0  0  0  0  0  0  0
    1.6706    0.3517   -0.4725 C   0  0  0  0  0  0  0  0  0  0  0  0
    0.7317   -0.8096   -0.5270 C   0  0  0  0  0  0  0  0  0  0  0  0
    1.0691   -1.0287    0.8317 O   0  0  0  0  0  0  0  0  0  0  0  0
   -1.9376   -1.5155    1.0449 H   0  0  0  0  0  0  0  0  0  0  0  0
   -2.0620    1.4077   -0.3717 H   0  0  0  0  0  0  0  0  0  0  0  0
   -0.4680    1.7851   -1.2040 H   0  0  0  0  0  0  0  0  0  0  0  0
   -0.9434    0.6259    1.7108 H   0  0  0  0  0  0  0  0  0  0  0  0
    1.6853    0.8052    1.7128 H   0  0  0  0  0  0  0  0  0  0  0  0
    1.4816    1.2042   -1.1195 H   0  0  0  0  0  0  0  0  0  0  0  0
    2.7157   -0.0089   -0.4658 H   0  0  0  0  0  0  0  0  0  0  0  0
    0.9089   -1.6136   -1.2052 H   0  0  0  0  0  0  0  0  0  0  0  0
  1  2  2  0
  2  3  1  0
  3  4  1  0
  4  5  1  0
  5  6  1  0
  6  7  1  0
  7  8  1  0
  8  9  1  0
  5  3  1  0
  9  6  1  0
  8  3  1  0
  2 10  1  0
  4 11  1  0
  4 12  1  0
  5 13  1  0
  6 14  1  0
  7 15  1  0
  7 16  1  0
  8 17  1  0
M  END
