
     RDKit          3D

 19 19  0  0  0  0  0  0  0  0999 V2000
    1.8003    1.5343   -1.4078 O   0  0  0  0  0  0  0  0  0  0  0  0
    2.3015    0.9618   -0.4611 C   0  0  0  0  0  0  0  0  0  0  0  0
    1.6224   -0.1277    0.2682 C   0  0  0  0  0  0  0  0  0  0  0  0
    0.2559   -0.4220   -0.3114 C   0  0  0  0  0  0  0  0  0  0  0  0
   -0.4420   -1.5409    0.4373 C   0  0  0  0  0  0  0  0  0  0  0  0
   -1.7211   -0.7345    0.3060 C   0  0  0  0  0  0  0  0  0  0  0  0
   -0.8462    0.4987    0.1549 C   0  0  0  0  0  0  0  0  0  0  0  0
   -1.3390    1.4271   -0.9002 C   0  0  0  0  0  0  0  0  0  0  0  0
   -2.2324    2.2189   -0.6580 O   0  0  0  0  0  0  0  0  0  0  0  0
    3.2873    1.2733   -0.1499 H   0  0  0  0  0  0  0  0  0  0  0  0
    1.5824    0.0253    1.3509 H   0  0  0  0  0  0  0  0  0  0  0  0
    2.2270   -1.0627    0.1097 H   0  0  0  0  0  0  0  0  0  0  0  0
    0.2821   -0.5597   -1.3970 H   0  0  0  0  0  0  0  0  0  0  0  0
   -0.5073   -2.5036   -0.1036 H   0  0  0  0  0  0  0  0  0  0  0  0
   -0.0860   -1.6150    1.4916 H   0  0  0  0  0  0  0  0  0  0  0  0
   -2.3633   -0.7365    1.2032 H   0  0  0  0  0  0  0  0  0  0  0  0
   -2.2558   -1.0204   -0.6361 H   0  0  0  0  0  0  0  0  0  0  0  0
   -0.6602    0.9792    1.1372 H   0  0  0  0  0  0  0  0  0  0  0  0
   -0.9054    1.4046   -1.8926 H   0  0  0  0  0  0  0  0  0  0  0  0
  1  2  2  0
  2  3  1  0
  3  4  1  0
  4  5  1  0
  5  6  1  0
  6  7  1  0
  7  8  1  0
  8  9  2  0
  7  4  1  0
  2 10  1  0
  3 11  1  0
  3 12  1  0
  4 13  1  0
  5 14  1  0
  5 15  1  0
  6 16  1  0
  6 17  1  0
  7 18  1  0
  8 19  1  0
M  END
