
     RDKit          3D

 15 15  0  0  0  0  0  0  0  0999 V2000
    2.9569    0.1661   -0.7302 O   0  0  0  0  0  0  0  0  0  0  0  0
    2.2391   -0.3322    0.1589 C   0  0  0  0  0  0  0  0  0  0  0  0
    0.8195   -0.0701    0.1530 C   0  0  0  0  0  0  0  0  0  0  0  0
    0.2475    0.7013   -0.7910 C   0  0  0  0  0  0  0  0  0  0  0  0
   -1.2205    0.9197   -0.7227 C   0  0  0  0  0  0  0  0  0  0  0  0
   -1.8349   -0.3965   -0.3922 C   0  0  0  0  0  0  0  0  0  0  0  0
   -2.7756   -0.8930   -1.0349 O   0  0  0  0  0  0  0  0  0  0  0  0
   -1.2885   -1.0625    0.7032 O   0  0  0  0  0  0  0  0  0  0  0  0
   -0.0205   -0.6683    1.2161 C   0  0  0  0  0  0  0  0  0  0  0  0
    2.6682   -0.9459    0.9166 H   0  0  0  0  0  0  0  0  0  0  0  0
    0.8631    1.1263   -1.5505 H   0  0  0  0  0  0  0  0  0  0  0  0
   -1.3805    1.6465    0.1207 H   0  0  0  0  0  0  0  0  0  0  0  0
   -1.6441    1.2773   -1.6586 H   0  0  0  0  0  0  0  0  0  0  0  0
    0.5048   -1.5615    1.5992 H   0  0  0  0  0  0  0  0  0  0  0  0
   -0.1346    0.0927    2.0123 H   0  0  0  0  0  0  0  0  0  0  0  0
  1  2  2  0
  2  3  1  0
  3  4  2  0
  4  5  1  0
  5  6  1  0
  6  7  2  0
  6  8  1  0
  8  9  1  0
  9  3  1  0
  2 10  1  0
  4 11  1  0
  5 12  1  0
  5 13  1  0
  9 14  1  0
  9 15  1  0
M  END
