
     RDKit          3D

 16 17  0  0  0  0  0  0  0  0999 V2000
    3.0295   -0.1380    0.0290 O   0  0  0  0  0  0  0  0  0  0  0  0
    1.9170    0.3138    0.2910 C   0  0  0  0  0  0  0  0  0  0  0  0
    0.6643   -0.2930   -0.1540 C   0  0  0  0  0  0  0  0  0  0  0  0
    0.8916   -1.4455   -0.9129 O   0  0  0  0  0  0  0  0  0  0  0  0
   -0.4277    0.5709   -0.6627 C   0  0  0  0  0  0  0  0  0  0  0  0
   -0.6867    0.9598    0.7660 C   0  0  0  0  0  0  0  0  0  0  0  0
   -0.4266   -0.4923    0.8526 C   0  0  0  0  0  0  0  0  0  0  0  0
   -1.3340   -0.5997   -0.3662 C   0  0  0  0  0  0  0  0  0  0  0  0
    1.9045    1.2132    0.8870 H   0  0  0  0  0  0  0  0  0  0  0  0
    0.6772   -1.2548   -1.8629 H   0  0  0  0  0  0  0  0  0  0  0  0
   -0.4564    1.1595   -1.4674 H   0  0  0  0  0  0  0  0  0  0  0  0
   -1.7673    1.2239    0.8820 H   0  0  0  0  0  0  0  0  0  0  0  0
   -0.0211    1.6767    1.2335 H   0  0  0  0  0  0  0  0  0  0  0  0
   -0.4388   -1.1092    1.6353 H   0  0  0  0  0  0  0  0  0  0  0  0
   -1.1522   -1.4759   -0.9878 H   0  0  0  0  0  0  0  0  0  0  0  0
   -2.3733   -0.3091   -0.1625 H   0  0  0  0  0  0  0  0  0  0  0  0
  1  2  2  0
  2  3  1  0
  3  4  1  0
  3  5  1  0
  5  6  1  0
  6  7  1  0
  7  8  1  0
  7  3  1  0
  8  5  1  0
  2  9  1  0
  4 10  1  0
  5 11  1  0
  6 12  1  0
  6 13  1  0
  7 14  1  0
  8 15  1  0
  8 16  1  0
M  END
