
     RDKit          3D

 21 21  0  0  0  0  0  0  0  0999 V2000
    3.1241    1.4137    0.8876 O   0  0  0  0  0  0  0  0  0  0  0  0
    2.6618    0.3437    0.4340 C   0  0  0  0  0  0  0  0  0  0  0  0
    1.2974    0.2333   -0.0389 C   0  0  0  0  0  0  0  0  0  0  0  0
    0.5187    1.3124    0.0158 C   0  0  0  0  0  0  0  0  0  0  0  0
   -0.8742    1.4382   -0.3991 C   0  0  0  0  0  0  0  0  0  0  0  0
   -1.8164    0.5482    0.3681 C   0  0  0  0  0  0  0  0  0  0  0  0
   -1.1967   -0.8077    0.6525 C   0  0  0  0  0  0  0  0  0  0  0  0
   -0.5341   -1.3755   -0.5722 C   0  0  0  0  0  0  0  0  0  0  0  0
    0.9225   -1.1002   -0.5392 C   0  0  0  0  0  0  0  0  0  0  0  0
    3.2985   -0.5145    0.3961 H   0  0  0  0  0  0  0  0  0  0  0  0
    1.0421    2.1619    0.4265 H   0  0  0  0  0  0  0  0  0  0  0  0
   -1.1838    2.5071   -0.2158 H   0  0  0  0  0  0  0  0  0  0  0  0
   -1.0425    1.2739   -1.4851 H   0  0  0  0  0  0  0  0  0  0  0  0
   -2.0498    1.0126    1.3461 H   0  0  0  0  0  0  0  0  0  0  0  0
   -2.7494    0.3614   -0.2261 H   0  0  0  0  0  0  0  0  0  0  0  0
   -2.0280   -1.4812    0.9464 H   0  0  0  0  0  0  0  0  0  0  0  0
   -0.4713   -0.7251    1.4681 H   0  0  0  0  0  0  0  0  0  0  0  0
   -0.6673   -2.4951   -0.5389 H   0  0  0  0  0  0  0  0  0  0  0  0
   -1.0409   -1.0312   -1.5015 H   0  0  0  0  0  0  0  0  0  0  0  0
    1.3878   -1.2073   -1.5562 H   0  0  0  0  0  0  0  0  0  0  0  0
    1.4015   -1.8688    0.1318 H   0  0  0  0  0  0  0  0  0  0  0  0
  1  2  2  0
  2  3  1  0
  3  4  2  0
  4  5  1  0
  5  6  1  0
  6  7  1  0
  7  8  1  0
  8  9  1  0
  9  3  1  0
  2 10  1  0
  4 11  1  0
  5 12  1  0
  5 13  1  0
  6 14  1  0
  6 15  1  0
  7 16  1  0
  7 17  1  0
  8 18  1  0
  8 19  1  0
  9 20  1  0
  9 21  1  0
M  END
