
     RDKit          3D

 17 18  0  0  0  0  0  0  0  0999 V2000
   -2.0202   -1.7651   -1.0181 O   0  0  0  0  0  0  0  0  0  0  0  0
   -1.3238   -1.7143   -0.0358 C   0  0  0  0  0  0  0  0  0  0  0  0
   -0.3474   -0.6950    0.1484 C   0  0  0  0  0  0  0  0  0  0  0  0
    0.6709   -0.4475   -0.9672 C   0  0  0  0  0  0  0  0  0  0  0  0
    1.5570    0.5269   -0.1610 C   0  0  0  0  0  0  0  0  0  0  0  0
    0.6714    0.6433    1.0452 C   0  0  0  0  0  0  0  0  0  0  0  0
    0.4113   -0.7196    1.3195 O   0  0  0  0  0  0  0  0  0  0  0  0
   -0.7426    0.7038    0.5024 C   0  0  0  0  0  0  0  0  0  0  0  0
   -0.8403    1.5088   -0.6190 O   0  0  0  0  0  0  0  0  0  0  0  0
   -1.4681   -2.4857    0.7183 H   0  0  0  0  0  0  0  0  0  0  0  0
    0.1449    0.0826   -1.7707 H   0  0  0  0  0  0  0  0  0  0  0  0
    1.2081   -1.3435   -1.2567 H   0  0  0  0  0  0  0  0  0  0  0  0
    2.4861   -0.0081    0.1512 H   0  0  0  0  0  0  0  0  0  0  0  0
    1.7352    1.4530   -0.6952 H   0  0  0  0  0  0  0  0  0  0  0  0
    0.9423    1.2714    1.8579 H   0  0  0  0  0  0  0  0  0  0  0  0
   -1.4950    0.8366    1.2740 H   0  0  0  0  0  0  0  0  0  0  0  0
   -1.5899    2.1522   -0.4932 H   0  0  0  0  0  0  0  0  0  0  0  0
  1  2  2  0
  2  3  1  0
  3  4  1  0
  4  5  1  0
  5  6  1  0
  6  7  1  0
  6  8  1  0
  8  9  1  0
  7  3  1  0
  8  3  1  0
  2 10  1  0
  4 11  1  0
  4 12  1  0
  5 13  1  0
  5 14  1  0
  6 15  1  0
  8 16  1  0
  9 17  1  0
M  END
