
     RDKit          3D

 17 18  0  0  0  0  0  0  0  0999 V2000
    3.0904    0.8081    0.8152 O   0  0  0  0  0  0  0  0  0  0  0  0
    2.0414    0.7989    0.1970 C   0  0  0  0  0  0  0  0  0  0  0  0
    1.3498   -0.4950    0.0008 C   0  0  0  0  0  0  0  0  0  0  0  0
    0.0706   -0.2578   -0.7727 C   0  0  0  0  0  0  0  0  0  0  0  0
   -0.8329    0.6821   -0.0034 C   0  0  0  0  0  0  0  0  0  0  0  0
   -0.2176    1.2815    1.0828 O   0  0  0  0  0  0  0  0  0  0  0  0
   -1.7693   -0.4491    0.3304 C   0  0  0  0  0  0  0  0  0  0  0  0
   -1.2815   -1.6988    0.6346 O   0  0  0  0  0  0  0  0  0  0  0  0
   -0.9820   -1.3062   -0.6396 C   0  0  0  0  0  0  0  0  0  0  0  0
    1.6898    1.7579   -0.1682 H   0  0  0  0  0  0  0  0  0  0  0  0
    2.0204   -1.1767   -0.5650 H   0  0  0  0  0  0  0  0  0  0  0  0
    1.1105   -0.8925    1.0160 H   0  0  0  0  0  0  0  0  0  0  0  0
    0.3099    0.0768   -1.8013 H   0  0  0  0  0  0  0  0  0  0  0  0
   -1.3554    1.4080   -0.6758 H   0  0  0  0  0  0  0  0  0  0  0  0
   -0.8186    1.4529    1.8286 H   0  0  0  0  0  0  0  0  0  0  0  0
   -2.8490   -0.3530    0.2280 H   0  0  0  0  0  0  0  0  0  0  0  0
   -1.5766   -1.6372   -1.5075 H   0  0  0  0  0  0  0  0  0  0  0  0
  1  2  2  0
  2  3  1  0
  3  4  1  0
  4  5  1  0
  5  6  1  0
  5  7  1  0
  7  8  1  0
  8  9  1  0
  9  4  1  0
  9  7  1  0
  2 10  1  0
  3 11  1  0
  3 12  1  0
  4 13  1  0
  5 14  1  0
  6 15  1  0
  7 16  1  0
  9 17  1  0
M  END
