
     RDKit          3D

 19 20  0  0  0  0  0  0  0  0999 V2000
    3.4747    1.8212   -0.1350 O   0  0  0  0  0  0  0  0  0  0  0  0
    2.3450    1.4996    0.1682 C   0  0  0  0  0  0  0  0  0  0  0  0
    1.9609    0.0778    0.0802 C   0  0  0  0  0  0  0  0  0  0  0  0
    0.5466   -0.1860    0.4797 C   0  0  0  0  0  0  0  0  0  0  0  0
    0.1384   -1.6436    0.3940 C   0  0  0  0  0  0  0  0  0  0  0  0
   -0.4674   -0.5712   -0.5263 C   0  0  0  0  0  0  0  0  0  0  0  0
   -1.9235   -0.3694   -0.3294 C   0  0  0  0  0  0  0  0  0  0  0  0
   -2.5698    0.8874   -0.1157 C   0  0  0  0  0  0  0  0  0  0  0  0
   -2.1872    0.1383    1.0437 O   0  0  0  0  0  0  0  0  0  0  0  0
    1.6647    2.2707    0.4912 H   0  0  0  0  0  0  0  0  0  0  0  0
    2.6187   -0.4777    0.8136 H   0  0  0  0  0  0  0  0  0  0  0  0
    2.2237   -0.3498   -0.9111 H   0  0  0  0  0  0  0  0  0  0  0  0
    0.2163    0.3926    1.3732 H   0  0  0  0  0  0  0  0  0  0  0  0
   -0.4839   -2.0431    1.2070 H   0  0  0  0  0  0  0  0  0  0  0  0
    0.8303   -2.3721   -0.0516 H   0  0  0  0  0  0  0  0  0  0  0  0
   -0.1022   -0.6354   -1.5757 H   0  0  0  0  0  0  0  0  0  0  0  0
   -2.5565   -1.2705   -0.4934 H   0  0  0  0  0  0  0  0  0  0  0  0
   -3.6677    0.9632   -0.2797 H   0  0  0  0  0  0  0  0  0  0  0  0
   -2.0613    1.8680   -0.2390 H   0  0  0  0  0  0  0  0  0  0  0  0
  1  2  2  0
  2  3  1  0
  3  4  1  0
  4  5  1  0
  5  6  1  0
  6  7  1  0
  7  8  1  0
  8  9  1  0
  6  4  1  0
  9  7  1  0
  2 10  1  0
  3 11  1  0
  3 12  1  0
  4 13  1  0
  5 14  1  0
  5 15  1  0
  6 16  1  0
  7 17  1  0
  8 18  1  0
  8 19  1  0
M  END
