
     RDKit          3D

 17 16  0  0  0  0  0  0  0  0999 V2000
    2.2013    1.6368   -0.5694 O   0  0  0  0  0  0  0  0  0  0  0  0
    1.6752    1.1156    0.3936 C   0  0  0  0  0  0  0  0  0  0  0  0
    1.2330   -0.3073    0.3440 C   0  0  0  0  0  0  0  0  0  0  0  0
    0.6640   -0.7168    1.5201 O   0  0  0  0  0  0  0  0  0  0  0  0
    0.3878   -0.5183   -0.8733 C   0  0  0  0  0  0  0  0  0  0  0  0
   -0.8458    0.3351   -0.9145 C   0  0  0  0  0  0  0  0  0  0  0  0
   -1.5278    0.0334   -2.0928 O   0  0  0  0  0  0  0  0  0  0  0  0
   -1.7499    0.1654    0.2138 C   0  0  0  0  0  0  0  0  0  0  0  0
   -2.8990   -0.1868    0.0695 O   0  0  0  0  0  0  0  0  0  0  0  0
    1.5221    1.6764    1.2952 H   0  0  0  0  0  0  0  0  0  0  0  0
    2.1648   -0.9124    0.1969 H   0  0  0  0  0  0  0  0  0  0  0  0
    0.0972   -1.5008    1.4510 H   0  0  0  0  0  0  0  0  0  0  0  0
    1.0098   -0.2441   -1.7581 H   0  0  0  0  0  0  0  0  0  0  0  0
    0.1269   -1.5868   -1.0120 H   0  0  0  0  0  0  0  0  0  0  0  0
   -0.5222    1.4096   -1.0288 H   0  0  0  0  0  0  0  0  0  0  0  0
   -2.1320   -0.7531   -1.9830 H   0  0  0  0  0  0  0  0  0  0  0  0
   -1.4052    0.3542    1.2161 H   0  0  0  0  0  0  0  0  0  0  0  0
  1  2  2  0
  2  3  1  0
  3  4  1  0
  3  5  1  0
  5  6  1  0
  6  7  1  0
  6  8  1  0
  8  9  2  0
  2 10  1  0
  3 11  1  0
  4 12  1  0
  5 13  1  0
  5 14  1  0
  6 15  1  0
  7 16  1  0
  8 17  1  0
M  END
