
     RDKit          3D

 14 15  0  0  0  0  0  0  0  0999 V2000
    2.1356   -1.2602    1.0459 O   0  0  0  0  0  0  0  0  0  0  0  0
    1.8382   -0.3567    0.2654 C   0  0  0  0  0  0  0  0  0  0  0  0
    0.6584   -0.4429   -0.6324 C   0  0  0  0  0  0  0  0  0  0  0  0
    0.5524    0.7118   -1.4094 O   0  0  0  0  0  0  0  0  0  0  0  0
   -0.1191    1.2878   -0.3103 C   0  0  0  0  0  0  0  0  0  0  0  0
   -0.5685   -0.0513    0.0571 C   0  0  0  0  0  0  0  0  0  0  0  0
   -1.5682   -0.6158    0.7294 C   0  0  0  0  0  0  0  0  0  0  0  0
   -1.7636   -0.4546   -0.7327 O   0  0  0  0  0  0  0  0  0  0  0  0
    2.4577    0.5233    0.2367 H   0  0  0  0  0  0  0  0  0  0  0  0
    0.6516   -1.3823   -1.2318 H   0  0  0  0  0  0  0  0  0  0  0  0
   -0.8663    2.0490   -0.5859 H   0  0  0  0  0  0  0  0  0  0  0  0
    0.6287    1.7150    0.3782 H   0  0  0  0  0  0  0  0  0  0  0  0
   -2.3777   -0.0297    1.2348 H   0  0  0  0  0  0  0  0  0  0  0  0
   -1.6591   -1.6934    0.9551 H   0  0  0  0  0  0  0  0  0  0  0  0
  1  2  2  0
  2  3  1  0
  3  4  1  0
  4  5  1  0
  5  6  1  0
  6  7  1  0
  7  8  1  0
  6  3  1  0
  8  6  1  0
  2  9  1  0
  3 10  1  0
  5 11  1  0
  5 12  1  0
  7 13  1  0
  7 14  1  0
M  END
