
     RDKit          3D

 17 17  0  0  0  0  0  0  0  0999 V2000
   -1.9493   -0.5762   -1.8953 O   0  0  0  0  0  0  0  0  0  0  0  0
   -2.1009    0.0732   -0.8821 C   0  0  0  0  0  0  0  0  0  0  0  0
   -0.9883    0.5344   -0.0096 C   0  0  0  0  0  0  0  0  0  0  0  0
   -1.5039    1.2665    1.0899 O   0  0  0  0  0  0  0  0  0  0  0  0
   -0.2113   -0.6200    0.5176 C   0  0  0  0  0  0  0  0  0  0  0  0
    0.9804   -0.2371    1.4440 C   0  0  0  0  0  0  0  0  0  0  0  0
    1.1830   -0.9342    0.1455 C   0  0  0  0  0  0  0  0  0  0  0  0
    1.9605   -0.1720   -0.8555 C   0  0  0  0  0  0  0  0  0  0  0  0
    1.8395    0.9993   -1.1204 O   0  0  0  0  0  0  0  0  0  0  0  0
   -3.1093    0.3323   -0.5970 H   0  0  0  0  0  0  0  0  0  0  0  0
   -0.3386    1.2317   -0.5558 H   0  0  0  0  0  0  0  0  0  0  0  0
   -1.4301    2.2284    0.9329 H   0  0  0  0  0  0  0  0  0  0  0  0
   -0.8110   -1.4908    0.9343 H   0  0  0  0  0  0  0  0  0  0  0  0
    1.0545   -0.7573    2.4032 H   0  0  0  0  0  0  0  0  0  0  0  0
    1.2086    0.8460    1.5084 H   0  0  0  0  0  0  0  0  0  0  0  0
    1.4761   -2.0297    0.2605 H   0  0  0  0  0  0  0  0  0  0  0  0
    2.7400   -0.6944   -1.4395 H   0  0  0  0  0  0  0  0  0  0  0  0
  1  2  2  0
  2  3  1  0
  3  4  1  0
  3  5  1  0
  5  6  1  0
  6  7  1  0
  7  8  1  0
  8  9  2  0
  7  5  1  0
  2 10  1  0
  3 11  1  0
  4 12  1  0
  5 13  1  0
  6 14  1  0
  6 15  1  0
  7 16  1  0
  8 17  1  0
M  END
