
     RDKit          3D

 17 18  0  0  0  0  0  0  0  0999 V2000
    2.5615    1.4308    0.3538 O   0  0  0  0  0  0  0  0  0  0  0  0
    2.5450    0.2145    0.5192 C   0  0  0  0  0  0  0  0  0  0  0  0
    1.3826   -0.6151    0.0698 C   0  0  0  0  0  0  0  0  0  0  0  0
    0.3511    0.2777   -0.5613 C   0  0  0  0  0  0  0  0  0  0  0  0
   -0.9033   -0.2882   -1.0930 C   0  0  0  0  0  0  0  0  0  0  0  0
   -1.4143   -1.4033   -0.4761 O   0  0  0  0  0  0  0  0  0  0  0  0
   -1.6768   -0.6788    0.6878 C   0  0  0  0  0  0  0  0  0  0  0  0
   -0.8965    0.4987    0.1561 C   0  0  0  0  0  0  0  0  0  0  0  0
   -1.4848    1.7486    0.2460 O   0  0  0  0  0  0  0  0  0  0  0  0
    3.4073   -0.2095    1.0008 H   0  0  0  0  0  0  0  0  0  0  0  0
    0.9320   -1.0846    0.9542 H   0  0  0  0  0  0  0  0  0  0  0  0
    1.7095   -1.4366   -0.5990 H   0  0  0  0  0  0  0  0  0  0  0  0
    0.7838    1.1454   -1.1033 H   0  0  0  0  0  0  0  0  0  0  0  0
   -1.2812    0.0790   -2.0458 H   0  0  0  0  0  0  0  0  0  0  0  0
   -2.7576   -0.5085    0.8189 H   0  0  0  0  0  0  0  0  0  0  0  0
   -1.1919   -1.1551    1.5637 H   0  0  0  0  0  0  0  0  0  0  0  0
   -2.0663    1.9850   -0.4919 H   0  0  0  0  0  0  0  0  0  0  0  0
  1  2  2  0
  2  3  1  0
  3  4  1  0
  4  5  1  0
  5  6  1  0
  6  7  1  0
  7  8  1  0
  8  9  1  0
  8  4  1  0
  8  5  1  0
  2 10  1  0
  3 11  1  0
  3 12  1  0
  4 13  1  0
  5 14  1  0
  7 15  1  0
  7 16  1  0
  9 17  1  0
M  END
