
     RDKit          3D

 17 18  0  0  0  0  0  0  0  0999 V2000
    1.9458    0.9164   -1.8676 O   0  0  0  0  0  0  0  0  0  0  0  0
    2.3223    0.2335   -0.9505 C   0  0  0  0  0  0  0  0  0  0  0  0
    1.3795   -0.5120   -0.0729 C   0  0  0  0  0  0  0  0  0  0  0  0
    0.1979    0.3772    0.2893 C   0  0  0  0  0  0  0  0  0  0  0  0
   -0.7904   -0.3084    1.1577 C   0  0  0  0  0  0  0  0  0  0  0  0
   -1.9638   -0.4135    0.5565 C   0  0  0  0  0  0  0  0  0  0  0  0
   -1.8505    0.2072   -0.7930 C   0  0  0  0  0  0  0  0  0  0  0  0
   -0.8824   -0.5581   -1.6633 O   0  0  0  0  0  0  0  0  0  0  0  0
   -0.5746    0.6793   -0.9494 C   0  0  0  0  0  0  0  0  0  0  0  0
    3.4155    0.1856   -0.7887 H   0  0  0  0  0  0  0  0  0  0  0  0
    0.9734   -1.3247   -0.7535 H   0  0  0  0  0  0  0  0  0  0  0  0
    1.8349   -0.9996    0.7785 H   0  0  0  0  0  0  0  0  0  0  0  0
    0.5385    1.2975    0.8148 H   0  0  0  0  0  0  0  0  0  0  0  0
   -0.6280   -0.7023    2.1716 H   0  0  0  0  0  0  0  0  0  0  0  0
   -2.8845   -0.8636    0.9515 H   0  0  0  0  0  0  0  0  0  0  0  0
   -2.7706    0.2761   -1.3866 H   0  0  0  0  0  0  0  0  0  0  0  0
   -0.2629    1.5092   -1.6234 H   0  0  0  0  0  0  0  0  0  0  0  0
  1  2  2  0
  2  3  1  0
  3  4  1  0
  4  5  1  0
  5  6  2  0
  6  7  1  0
  7  8  1  0
  8  9  1  0
  9  4  1  0
  9  7  1  0
  2 10  1  0
  3 11  1  0
  3 12  1  0
  4 13  1  0
  5 14  1  0
  6 15  1  0
  7 16  1  0
  9 17  1  0
M  END
