
     RDKit          3D

 15 16  0  0  0  0  0  0  0  0999 V2000
    4.3941    0.5576    0.5320 O   0  0  0  0  0  0  0  0  0  0  0  0
    3.5412    0.3263   -0.3631 C   0  0  0  0  0  0  0  0  0  0  0  0
    2.1524    0.0308   -0.0445 C   0  0  0  0  0  0  0  0  0  0  0  0
    1.0023   -0.1925    0.2192 C   0  0  0  0  0  0  0  0  0  0  0  0
   -0.3977   -0.4653    0.5204 C   0  0  0  0  0  0  0  0  0  0  0  0
   -1.2592   -1.2218   -0.4114 C   0  0  0  0  0  0  0  0  0  0  0  0
   -1.4220    0.2488   -0.2635 C   0  0  0  0  0  0  0  0  0  0  0  0
   -1.9410    0.7157    1.0620 C   0  0  0  0  0  0  0  0  0  0  0  0
   -0.9542   -0.0433    1.6957 O   0  0  0  0  0  0  0  0  0  0  0  0
    3.8050    0.3382   -1.3919 H   0  0  0  0  0  0  0  0  0  0  0  0
   -2.0916   -1.8328   -0.0139 H   0  0  0  0  0  0  0  0  0  0  0  0
   -0.8797   -1.5965   -1.3798 H   0  0  0  0  0  0  0  0  0  0  0  0
   -1.1876    0.9470   -1.0722 H   0  0  0  0  0  0  0  0  0  0  0  0
   -1.7814    1.7796    1.3077 H   0  0  0  0  0  0  0  0  0  0  0  0
   -2.9805    0.4081    1.3041 H   0  0  0  0  0  0  0  0  0  0  0  0
  1  2  2  0
  2  3  1  0
  3  4  3  0
  4  5  1  0
  5  6  1  0
  6  7  1  0
  7  8  1  0
  8  9  1  0
  7  5  1  0
  9  5  1  0
  2 10  1  0
  6 11  1  0
  6 12  1  0
  7 13  1  0
  8 14  1  0
  8 15  1  0
M  END
