
     RDKit          3D

 15 16  0  0  0  0  0  0  0  0999 V2000
    1.0610    0.9610    1.4828 O   0  0  0  0  0  0  0  0  0  0  0  0
    1.7194    0.4884    0.5867 C   0  0  0  0  0  0  0  0  0  0  0  0
    1.1630   -0.3019   -0.5032 C   0  0  0  0  0  0  0  0  0  0  0  0
   -0.1394    0.2341   -1.0929 C   0  0  0  0  0  0  0  0  0  0  0  0
   -1.0436    1.0492   -0.2878 C   0  0  0  0  0  0  0  0  0  0  0  0
   -1.4820    0.3648    0.7512 C   0  0  0  0  0  0  0  0  0  0  0  0
   -0.9356   -0.9659    0.7705 C   0  0  0  0  0  0  0  0  0  0  0  0
   -1.0923   -1.9073    1.5889 O   0  0  0  0  0  0  0  0  0  0  0  0
   -0.0767   -1.0878   -0.4259 C   0  0  0  0  0  0  0  0  0  0  0  0
    2.7862    0.6748    0.6131 H   0  0  0  0  0  0  0  0  0  0  0  0
    1.9149   -0.6653   -1.2457 H   0  0  0  0  0  0  0  0  0  0  0  0
   -0.1461    0.3169   -2.2032 H   0  0  0  0  0  0  0  0  0  0  0  0
   -1.3263    2.0689   -0.4957 H   0  0  0  0  0  0  0  0  0  0  0  0
   -2.1766    0.7361    1.5215 H   0  0  0  0  0  0  0  0  0  0  0  0
   -0.2261   -1.9659   -1.0602 H   0  0  0  0  0  0  0  0  0  0  0  0
  1  2  2  0
  2  3  1  0
  3  4  1  0
  4  5  1  0
  5  6  2  0
  6  7  1  0
  7  8  2  0
  7  9  1  0
  9  3  1  0
  9  4  1  0
  2 10  1  0
  3 11  1  0
  4 12  1  0
  5 13  1  0
  6 14  1  0
  9 15  1  0
M  END
