
     RDKit          3D

 17 18  0  0  0  0  0  0  0  0999 V2000
   -2.2485   -1.1825   -1.4046 O   0  0  0  0  0  0  0  0  0  0  0  0
   -2.1876   -1.2238   -0.1918 C   0  0  0  0  0  0  0  0  0  0  0  0
   -1.2486   -0.3047    0.4897 C   0  0  0  0  0  0  0  0  0  0  0  0
   -0.8593    0.9877   -0.1188 C   0  0  0  0  0  0  0  0  0  0  0  0
   -0.4918    1.9931    0.7731 O   0  0  0  0  0  0  0  0  0  0  0  0
    0.0702   -0.1718   -0.2111 C   0  0  0  0  0  0  0  0  0  0  0  0
    1.2771   -0.2468    0.6681 C   0  0  0  0  0  0  0  0  0  0  0  0
    2.6283   -0.1298    0.0983 C   0  0  0  0  0  0  0  0  0  0  0  0
    1.9953    0.9796    0.7093 O   0  0  0  0  0  0  0  0  0  0  0  0
   -2.7787   -1.8922    0.4169 H   0  0  0  0  0  0  0  0  0  0  0  0
   -1.2350   -0.3856    1.5894 H   0  0  0  0  0  0  0  0  0  0  0  0
   -1.2985    1.3357   -1.0751 H   0  0  0  0  0  0  0  0  0  0  0  0
   -1.2510    2.2986    1.3235 H   0  0  0  0  0  0  0  0  0  0  0  0
    0.2192   -0.6502   -1.2124 H   0  0  0  0  0  0  0  0  0  0  0  0
    1.1914   -0.7887    1.6519 H   0  0  0  0  0  0  0  0  0  0  0  0
    2.7313   -0.1376   -0.9919 H   0  0  0  0  0  0  0  0  0  0  0  0
    3.4860   -0.4811    0.7130 H   0  0  0  0  0  0  0  0  0  0  0  0
  1  2  2  0
  2  3  1  0
  3  4  1  0
  4  5  1  0
  4  6  1  0
  6  7  1  0
  7  8  1  0
  8  9  1  0
  6  3  1  0
  9  7  1  0
  2 10  1  0
  3 11  1  0
  4 12  1  0
  5 13  1  0
  6 14  1  0
  7 15  1  0
  8 16  1  0
  8 17  1  0
M  END
