
     RDKit          3D

 21 22  0  0  0  0  0  0  0  0999 V2000
    3.0338    0.3082   -1.0902 O   0  0  0  0  0  0  0  0  0  0  0  0
    2.2212    0.7366   -0.2799 C   0  0  0  0  0  0  0  0  0  0  0  0
    0.8327    0.2749   -0.1929 C   0  0  0  0  0  0  0  0  0  0  0  0
   -0.2393    1.3004   -0.4027 C   0  0  0  0  0  0  0  0  0  0  0  0
   -1.4691    0.9088    0.3913 C   0  0  0  0  0  0  0  0  0  0  0  0
   -1.6901   -0.5727    0.1451 C   0  0  0  0  0  0  0  0  0  0  0  0
   -0.3942   -1.3421    0.2418 C   0  0  0  0  0  0  0  0  0  0  0  0
    0.5299   -1.0143   -0.9394 C   0  0  0  0  0  0  0  0  0  0  0  0
    0.6105   -0.5408    1.0814 C   0  0  0  0  0  0  0  0  0  0  0  0
    2.5509    1.5018    0.4123 H   0  0  0  0  0  0  0  0  0  0  0  0
    0.1408    2.2922   -0.1676 H   0  0  0  0  0  0  0  0  0  0  0  0
   -0.5680    1.3191   -1.4816 H   0  0  0  0  0  0  0  0  0  0  0  0
   -1.4099    1.1710    1.4479 H   0  0  0  0  0  0  0  0  0  0  0  0
   -2.3936    1.4217   -0.0046 H   0  0  0  0  0  0  0  0  0  0  0  0
   -2.0101   -0.6494   -0.9351 H   0  0  0  0  0  0  0  0  0  0  0  0
   -2.4270   -1.0130    0.8153 H   0  0  0  0  0  0  0  0  0  0  0  0
   -0.4646   -2.3989    0.4931 H   0  0  0  0  0  0  0  0  0  0  0  0
    0.0336   -0.9106   -1.8996 H   0  0  0  0  0  0  0  0  0  0  0  0
    1.4039   -1.6912   -0.8777 H   0  0  0  0  0  0  0  0  0  0  0  0
    0.1906   -0.0019    1.9211 H   0  0  0  0  0  0  0  0  0  0  0  0
    1.5179   -1.0997    1.3220 H   0  0  0  0  0  0  0  0  0  0  0  0
  1  2  2  0
  2  3  1  0
  3  4  1  0
  4  5  1  0
  5  6  1  0
  6  7  1  0
  7  8  1  0
  7  9  1  0
  8  3  1  0
  9  3  1  0
  2 10  1  0
  4 11  1  0
  4 12  1  0
  5 13  1  0
  5 14  1  0
  6 15  1  0
  6 16  1  0
  7 17  1  0
  8 18  1  0
  8 19  1  0
  9 20  1  0
  9 21  1  0
M  END
