
     RDKit          3D

 19 20  0  0  0  0  0  0  0  0999 V2000
    3.1406   -0.2475   -0.2088 O   0  0  0  0  0  0  0  0  0  0  0  0
    2.1250   -0.4882    0.4239 C   0  0  0  0  0  0  0  0  0  0  0  0
    0.8524   -0.5271   -0.3273 C   0  0  0  0  0  0  0  0  0  0  0  0
    0.4920    0.8579   -0.8920 C   0  0  0  0  0  0  0  0  0  0  0  0
   -0.7927    1.2539   -0.2133 C   0  0  0  0  0  0  0  0  0  0  0  0
   -0.6178    0.5424    1.1430 C   0  0  0  0  0  0  0  0  0  0  0  0
   -0.3417   -0.8270    0.5002 C   0  0  0  0  0  0  0  0  0  0  0  0
   -1.5446   -0.8403   -0.4524 C   0  0  0  0  0  0  0  0  0  0  0  0
   -1.8085    0.4874   -0.7639 O   0  0  0  0  0  0  0  0  0  0  0  0
    2.1837   -0.6604    1.4815 H   0  0  0  0  0  0  0  0  0  0  0  0
    0.9319   -1.2721   -1.1358 H   0  0  0  0  0  0  0  0  0  0  0  0
    0.3096    0.7356   -1.9794 H   0  0  0  0  0  0  0  0  0  0  0  0
    1.3115    1.5747   -0.7342 H   0  0  0  0  0  0  0  0  0  0  0  0
   -0.9890    2.2977   -0.1277 H   0  0  0  0  0  0  0  0  0  0  0  0
   -1.5726    0.5460    1.6907 H   0  0  0  0  0  0  0  0  0  0  0  0
    0.2372    0.9202    1.6962 H   0  0  0  0  0  0  0  0  0  0  0  0
   -0.3048   -1.6367    1.1848 H   0  0  0  0  0  0  0  0  0  0  0  0
   -2.3834   -1.3199    0.0760 H   0  0  0  0  0  0  0  0  0  0  0  0
   -1.2289   -1.3966   -1.3612 H   0  0  0  0  0  0  0  0  0  0  0  0
  1  2  2  0
  2  3  1  0
  3  4  1  0
  4  5  1  0
  5  6  1  0
  6  7  1  0
  7  8  1  0
  8  9  1  0
  7  3  1  0
  9  5  1  0
  2 10  1  0
  3 11  1  0
  4 12  1  0
  4 13  1  0
  5 14  1  0
  6 15  1  0
  6 16  1  0
  7 17  1  0
  8 18  1  0
  8 19  1  0
M  END
