
     RDKit          3D

 17 19  0  0  0  0  0  0  0  0999 V2000
   -2.7295   -0.0857    1.9216 O   0  0  0  0  0  0  0  0  0  0  0  0
   -1.9669    0.3246    1.0576 C   0  0  0  0  0  0  0  0  0  0  0  0
   -0.9560   -0.5525    0.3907 C   0  0  0  0  0  0  0  0  0  0  0  0
   -0.9416   -0.4310   -1.1697 C   0  0  0  0  0  0  0  0  0  0  0  0
    0.1571   -0.0807   -0.3427 C   0  0  0  0  0  0  0  0  0  0  0  0
    1.5529   -0.6258   -0.3665 C   0  0  0  0  0  0  0  0  0  0  0  0
    1.7093    0.3816    0.7588 C   0  0  0  0  0  0  0  0  0  0  0  0
    1.6420    1.6968    0.7033 O   0  0  0  0  0  0  0  0  0  0  0  0
    0.8648    1.2236   -0.2535 C   0  0  0  0  0  0  0  0  0  0  0  0
   -2.0714    1.3786    0.8023 H   0  0  0  0  0  0  0  0  0  0  0  0
   -0.9821   -1.6044    0.7696 H   0  0  0  0  0  0  0  0  0  0  0  0
   -0.9230   -1.4132   -1.7149 H   0  0  0  0  0  0  0  0  0  0  0  0
   -1.5913    0.3691   -1.5902 H   0  0  0  0  0  0  0  0  0  0  0  0
    1.7183   -1.6408   -0.0251 H   0  0  0  0  0  0  0  0  0  0  0  0
    2.0558   -0.3263   -1.3142 H   0  0  0  0  0  0  0  0  0  0  0  0
    1.0947   -0.0089    1.6356 H   0  0  0  0  0  0  0  0  0  0  0  0
    1.3671    1.3949   -1.2626 H   0  0  0  0  0  0  0  0  0  0  0  0
  1  2  2  0
  2  3  1  0
  3  4  1  0
  4  5  1  0
  5  6  1  0
  6  7  1  0
  7  8  1  0
  8  9  1  0
  5  3  1  0
  9  7  1  0
  9  5  1  0
  2 10  1  0
  3 11  1  0
  4 12  1  0
  4 13  1  0
  6 14  1  0
  6 15  1  0
  7 16  1  0
  9 17  1  0
M  END
