
     RDKit          3D

 23 23  0  0  0  0  0  0  0  0999 V2000
    3.4398   -1.6131   -1.0284 O   0  0  0  0  0  0  0  0  0  0  0  0
    3.6932   -0.7423   -0.2201 C   0  0  0  0  0  0  0  0  0  0  0  0
    2.6160    0.1353    0.3152 C   0  0  0  0  0  0  0  0  0  0  0  0
    1.2646   -0.2383   -0.2921 C   0  0  0  0  0  0  0  0  0  0  0  0
    0.2458    0.6870    0.2967 C   0  0  0  0  0  0  0  0  0  0  0  0
   -1.1424    0.4481   -0.2016 C   0  0  0  0  0  0  0  0  0  0  0  0
   -1.7114   -0.9279    0.0652 C   0  0  0  0  0  0  0  0  0  0  0  0
   -3.0657   -0.2137    0.1595 C   0  0  0  0  0  0  0  0  0  0  0  0
   -2.2550    0.9855    0.6754 C   0  0  0  0  0  0  0  0  0  0  0  0
    4.6915   -0.5889    0.1222 H   0  0  0  0  0  0  0  0  0  0  0  0
    2.8644    1.1938    0.1004 H   0  0  0  0  0  0  0  0  0  0  0  0
    2.5915    0.0385    1.4214 H   0  0  0  0  0  0  0  0  0  0  0  0
    1.3668   -0.1697   -1.3740 H   0  0  0  0  0  0  0  0  0  0  0  0
    1.0707   -1.2874    0.0616 H   0  0  0  0  0  0  0  0  0  0  0  0
    0.5272    1.7251   -0.0278 H   0  0  0  0  0  0  0  0  0  0  0  0
    0.3030    0.6777    1.3859 H   0  0  0  0  0  0  0  0  0  0  0  0
   -1.3421    0.7372   -1.2503 H   0  0  0  0  0  0  0  0  0  0  0  0
   -1.6343   -1.6436   -0.7655 H   0  0  0  0  0  0  0  0  0  0  0  0
   -1.4794   -1.3531    1.0589 H   0  0  0  0  0  0  0  0  0  0  0  0
   -3.7627   -0.6390    0.8744 H   0  0  0  0  0  0  0  0  0  0  0  0
   -3.5074   -0.0066   -0.8525 H   0  0  0  0  0  0  0  0  0  0  0  0
   -2.6851    1.9485    0.3702 H   0  0  0  0  0  0  0  0  0  0  0  0
   -2.0894    0.8469    1.7645 H   0  0  0  0  0  0  0  0  0  0  0  0
  1  2  2  0
  2  3  1  0
  3  4  1  0
  4  5  1  0
  5  6  1  0
  6  7  1  0
  7  8  1  0
  8  9  1  0
  9  6  1  0
  2 10  1  0
  3 11  1  0
  3 12  1  0
  4 13  1  0
  4 14  1  0
  5 15  1  0
  5 16  1  0
  6 17  1  0
  7 18  1  0
  7 19  1  0
  8 20  1  0
  8 21  1  0
  9 22  1  0
  9 23  1  0
M  END
