
     RDKit          3D

 17 19  0  0  0  0  0  0  0  0999 V2000
    3.4893   -0.6551    0.6443 O   0  0  0  0  0  0  0  0  0  0  0  0
    2.4912   -0.1598    0.1620 C   0  0  0  0  0  0  0  0  0  0  0  0
    1.1221   -0.6063    0.5474 C   0  0  0  0  0  0  0  0  0  0  0  0
    0.0717   -0.7613   -0.3596 C   0  0  0  0  0  0  0  0  0  0  0  0
   -1.3960   -0.7230   -0.3904 C   0  0  0  0  0  0  0  0  0  0  0  0
   -1.8730    0.6477   -0.1091 C   0  0  0  0  0  0  0  0  0  0  0  0
   -1.6901    1.8403   -0.4983 O   0  0  0  0  0  0  0  0  0  0  0  0
   -0.4860    1.3588   -0.2667 C   0  0  0  0  0  0  0  0  0  0  0  0
    0.1753    0.4663    0.6503 C   0  0  0  0  0  0  0  0  0  0  0  0
    2.6652    0.6352   -0.5735 H   0  0  0  0  0  0  0  0  0  0  0  0
    1.1979   -1.4342    1.3189 H   0  0  0  0  0  0  0  0  0  0  0  0
    0.4301   -0.4966   -1.4155 H   0  0  0  0  0  0  0  0  0  0  0  0
   -1.8361   -1.0488   -1.3647 H   0  0  0  0  0  0  0  0  0  0  0  0
   -1.7804   -1.4871    0.3264 H   0  0  0  0  0  0  0  0  0  0  0  0
   -2.1949    0.6980    0.9956 H   0  0  0  0  0  0  0  0  0  0  0  0
   -0.0074    1.3762   -1.2984 H   0  0  0  0  0  0  0  0  0  0  0  0
   -0.3789    0.3497    1.6311 H   0  0  0  0  0  0  0  0  0  0  0  0
  1  2  2  0
  2  3  1  0
  3  4  1  0
  4  5  1  0
  5  6  1  0
  6  7  1  0
  7  8  1  0
  8  9  1  0
  9  3  1  0
  9  4  1  0
  8  6  1  0
  2 10  1  0
  3 11  1  0
  4 12  1  0
  5 13  1  0
  5 14  1  0
  6 15  1  0
  8 16  1  0
  9 17  1  0
M  END
