
     RDKit          3D

 16 16  0  0  0  0  0  0  0  0999 V2000
    3.2915    0.1022    1.0104 O   0  0  0  0  0  0  0  0  0  0  0  0
    2.2117    0.4444    0.5574 C   0  0  0  0  0  0  0  0  0  0  0  0
    1.1258   -0.5576    0.5651 C   0  0  0  0  0  0  0  0  0  0  0  0
   -0.1607   -0.0547   -0.0073 C   0  0  0  0  0  0  0  0  0  0  0  0
   -1.2802   -1.0740   -0.0040 C   0  0  0  0  0  0  0  0  0  0  0  0
   -2.5138   -0.4735   -0.2787 O   0  0  0  0  0  0  0  0  0  0  0  0
   -0.5031    1.3431   -0.1412 C   0  0  0  0  0  0  0  0  0  0  0  0
    0.0224    0.6451   -1.2372 O   0  0  0  0  0  0  0  0  0  0  0  0
    2.0804    1.4328    0.1763 H   0  0  0  0  0  0  0  0  0  0  0  0
    1.0123   -0.9307    1.5905 H   0  0  0  0  0  0  0  0  0  0  0  0
    1.4483   -1.4319   -0.0687 H   0  0  0  0  0  0  0  0  0  0  0  0
   -1.1143   -1.9012   -0.7061 H   0  0  0  0  0  0  0  0  0  0  0  0
   -1.3348   -1.4591    1.0523 H   0  0  0  0  0  0  0  0  0  0  0  0
   -2.8033    0.1251    0.4457 H   0  0  0  0  0  0  0  0  0  0  0  0
   -1.5751    1.6072   -0.2474 H   0  0  0  0  0  0  0  0  0  0  0  0
    0.0928    2.1829    0.2831 H   0  0  0  0  0  0  0  0  0  0  0  0
  1  2  2  0
  2  3  1  0
  3  4  1  0
  4  5  1  0
  5  6  1  0
  4  7  1  0
  7  8  1  0
  8  4  1  0
  2  9  1  0
  3 10  1  0
  3 11  1  0
  5 12  1  0
  5 13  1  0
  6 14  1  0
  7 15  1  0
  7 16  1  0
M  END
