
     RDKit          3D

 18 18  0  0  0  0  0  0  0  0999 V2000
    0.9592   -0.9536   -1.7668 O   0  0  0  0  0  0  0  0  0  0  0  0
    1.9490   -0.6145   -1.1458 C   0  0  0  0  0  0  0  0  0  0  0  0
    1.8081    0.4959   -0.1696 C   0  0  0  0  0  0  0  0  0  0  0  0
    1.2203   -0.0138    1.1377 C   0  0  0  0  0  0  0  0  0  0  0  0
   -0.0225   -0.5760    0.9769 O   0  0  0  0  0  0  0  0  0  0  0  0
   -0.9838    0.2717    0.4707 C   0  0  0  0  0  0  0  0  0  0  0  0
   -2.4047    0.1815    0.8805 C   0  0  0  0  0  0  0  0  0  0  0  0
   -1.9527   -0.3423   -0.4746 C   0  0  0  0  0  0  0  0  0  0  0  0
    2.9071   -1.1045   -1.2955 H   0  0  0  0  0  0  0  0  0  0  0  0
    1.2393    1.3295   -0.6055 H   0  0  0  0  0  0  0  0  0  0  0  0
    2.8475    0.8396    0.0875 H   0  0  0  0  0  0  0  0  0  0  0  0
    1.1891    0.7494    1.9115 H   0  0  0  0  0  0  0  0  0  0  0  0
    1.9052   -0.8293    1.4837 H   0  0  0  0  0  0  0  0  0  0  0  0
   -0.6026    1.3036    0.2653 H   0  0  0  0  0  0  0  0  0  0  0  0
   -3.0135    1.0901    0.8537 H   0  0  0  0  0  0  0  0  0  0  0  0
   -2.7767   -0.5887    1.5748 H   0  0  0  0  0  0  0  0  0  0  0  0
   -1.9682   -1.4414   -0.6146 H   0  0  0  0  0  0  0  0  0  0  0  0
   -2.3001    0.2029   -1.3847 H   0  0  0  0  0  0  0  0  0  0  0  0
  1  2  2  0
  2  3  1  0
  3  4  1  0
  4  5  1  0
  5  6  1  0
  6  7  1  0
  7  8  1  0
  8  6  1  0
  2  9  1  0
  3 10  1  0
  3 11  1  0
  4 12  1  0
  4 13  1  0
  6 14  1  0
  7 15  1  0
  7 16  1  0
  8 17  1  0
  8 18  1  0
M  END
