
     RDKit          3D

 17 18  0  0  0  0  0  0  0  0999 V2000
    2.6149    0.7923   -1.4266 O   0  0  0  0  0  0  0  0  0  0  0  0
    1.9451    0.7969   -0.4057 C   0  0  0  0  0  0  0  0  0  0  0  0
    1.1426   -0.3994   -0.0328 C   0  0  0  0  0  0  0  0  0  0  0  0
    0.4836   -0.0897    1.1873 O   0  0  0  0  0  0  0  0  0  0  0  0
   -0.8363   -0.1096    0.8298 C   0  0  0  0  0  0  0  0  0  0  0  0
   -0.9616   -1.4032    0.0033 C   0  0  0  0  0  0  0  0  0  0  0  0
   -0.0278   -0.6352   -0.9203 C   0  0  0  0  0  0  0  0  0  0  0  0
   -0.9290    0.5507   -0.5557 C   0  0  0  0  0  0  0  0  0  0  0  0
   -0.3192    1.7750   -0.6506 O   0  0  0  0  0  0  0  0  0  0  0  0
    1.9767    1.7077    0.1905 H   0  0  0  0  0  0  0  0  0  0  0  0
    1.7951   -1.2807    0.0973 H   0  0  0  0  0  0  0  0  0  0  0  0
   -1.6118    0.0983    1.5215 H   0  0  0  0  0  0  0  0  0  0  0  0
   -1.9789   -1.4538   -0.3955 H   0  0  0  0  0  0  0  0  0  0  0  0
   -0.5407   -2.2870    0.4762 H   0  0  0  0  0  0  0  0  0  0  0  0
    0.0595   -0.9150   -1.9276 H   0  0  0  0  0  0  0  0  0  0  0  0
   -1.9072    0.4144   -1.0088 H   0  0  0  0  0  0  0  0  0  0  0  0
   -0.9050    2.4383   -0.2066 H   0  0  0  0  0  0  0  0  0  0  0  0
  1  2  2  0
  2  3  1  0
  3  4  1  0
  4  5  1  0
  5  6  1  0
  6  7  1  0
  7  8  1  0
  8  9  1  0
  7  3  1  0
  8  5  1  0
  2 10  1  0
  3 11  1  0
  5 12  1  0
  6 13  1  0
  6 14  1  0
  7 15  1  0
  8 16  1  0
  9 17  1  0
M  END
