
     RDKit          3D

 15 16  0  0  0  0  0  0  0  0999 V2000
    2.3380   -0.5704    1.3534 O   0  0  0  0  0  0  0  0  0  0  0  0
    1.8763   -0.5774    0.2277 C   0  0  0  0  0  0  0  0  0  0  0  0
    1.0615    0.5602   -0.2886 C   0  0  0  0  0  0  0  0  0  0  0  0
    0.9392    1.5789    0.7180 O   0  0  0  0  0  0  0  0  0  0  0  0
   -0.4205    1.6481    0.4695 C   0  0  0  0  0  0  0  0  0  0  0  0
   -1.2628    2.5484    0.6653 O   0  0  0  0  0  0  0  0  0  0  0  0
   -0.3835    0.3226   -0.0638 C   0  0  0  0  0  0  0  0  0  0  0  0
   -0.9583   -0.8784    0.5188 C   0  0  0  0  0  0  0  0  0  0  0  0
   -1.3009   -0.3593   -0.9127 C   0  0  0  0  0  0  0  0  0  0  0  0
    2.0627   -1.4344   -0.4175 H   0  0  0  0  0  0  0  0  0  0  0  0
    1.3740    0.9540   -1.2759 H   0  0  0  0  0  0  0  0  0  0  0  0
   -0.2983   -1.7849    0.5445 H   0  0  0  0  0  0  0  0  0  0  0  0
   -1.7702   -0.9115    1.2424 H   0  0  0  0  0  0  0  0  0  0  0  0
   -0.9074   -1.0030   -1.7483 H   0  0  0  0  0  0  0  0  0  0  0  0
   -2.3497   -0.0928   -1.0330 H   0  0  0  0  0  0  0  0  0  0  0  0
  1  2  2  0
  2  3  1  0
  3  4  1  0
  4  5  1  0
  5  6  2  0
  5  7  1  0
  7  8  1  0
  8  9  1  0
  7  3  1  0
  9  7  1  0
  2 10  1  0
  3 11  1  0
  8 12  1  0
  8 13  1  0
  9 14  1  0
  9 15  1  0
M  END
