
     RDKit          3D

 19 19  0  0  0  0  0  0  0  0999 V2000
   -2.0234    1.8659   -0.0895 O   0  0  0  0  0  0  0  0  0  0  0  0
   -1.0899    1.4622   -0.7632 C   0  0  0  0  0  0  0  0  0  0  0  0
   -0.3451    0.2823   -0.2475 C   0  0  0  0  0  0  0  0  0  0  0  0
   -1.3310   -0.8639   -0.0534 C   0  0  0  0  0  0  0  0  0  0  0  0
   -0.6889   -1.9932    0.4275 O   0  0  0  0  0  0  0  0  0  0  0  0
    0.8165   -0.0997   -1.0996 C   0  0  0  0  0  0  0  0  0  0  0  0
    1.9579   -0.3174   -0.1469 C   0  0  0  0  0  0  0  0  0  0  0  0
    1.6398    0.1279    1.0595 C   0  0  0  0  0  0  0  0  0  0  0  0
    0.2805    0.6856    1.0665 C   0  0  0  0  0  0  0  0  0  0  0  0
   -0.8293    1.9542   -1.6939 H   0  0  0  0  0  0  0  0  0  0  0  0
   -1.8234   -1.0388   -1.0333 H   0  0  0  0  0  0  0  0  0  0  0  0
   -2.1050   -0.4980    0.6622 H   0  0  0  0  0  0  0  0  0  0  0  0
   -1.3918   -2.5303    0.8999 H   0  0  0  0  0  0  0  0  0  0  0  0
    1.0643    0.6178   -1.8927 H   0  0  0  0  0  0  0  0  0  0  0  0
    0.6497   -1.1049   -1.5816 H   0  0  0  0  0  0  0  0  0  0  0  0
    2.8799   -0.7749   -0.4544 H   0  0  0  0  0  0  0  0  0  0  0  0
    2.2995    0.0821    1.9164 H   0  0  0  0  0  0  0  0  0  0  0  0
   -0.3430    0.3404    1.9127 H   0  0  0  0  0  0  0  0  0  0  0  0
    0.3827    1.8028    1.1114 H   0  0  0  0  0  0  0  0  0  0  0  0
  1  2  2  0
  2  3  1  0
  3  4  1  0
  4  5  1  0
  3  6  1  0
  6  7  1  0
  7  8  2  0
  8  9  1  0
  9  3  1  0
  2 10  1  0
  4 11  1  0
  4 12  1  0
  5 13  1  0
  6 14  1  0
  6 15  1  0
  7 16  1  0
  8 17  1  0
  9 18  1  0
  9 19  1  0
M  END
