
     RDKit          3D

 19 20  0  0  0  0  0  0  0  0999 V2000
    3.0144   -1.2690    0.6525 O   0  0  0  0  0  0  0  0  0  0  0  0
    2.4894   -0.1341    0.8324 C   0  0  0  0  0  0  0  0  0  0  0  0
    1.1663    0.1252    0.2980 C   0  0  0  0  0  0  0  0  0  0  0  0
    0.4914    1.2557    0.4045 C   0  0  0  0  0  0  0  0  0  0  0  0
   -0.7678    1.1250   -0.3225 C   0  0  0  0  0  0  0  0  0  0  0  0
   -1.6413    0.1621    0.4678 C   0  0  0  0  0  0  0  0  0  0  0  0
   -0.8936   -1.1766    0.3398 C   0  0  0  0  0  0  0  0  0  0  0  0
    0.3068   -0.8367   -0.4784 C   0  0  0  0  0  0  0  0  0  0  0  0
   -0.3264    0.1741   -1.4527 C   0  0  0  0  0  0  0  0  0  0  0  0
    3.0562    0.5998    1.3821 H   0  0  0  0  0  0  0  0  0  0  0  0
    0.8299    2.1174    0.9416 H   0  0  0  0  0  0  0  0  0  0  0  0
   -1.2496    2.0093   -0.6638 H   0  0  0  0  0  0  0  0  0  0  0  0
   -2.6526    0.0964    0.0202 H   0  0  0  0  0  0  0  0  0  0  0  0
   -1.6481    0.4916    1.5199 H   0  0  0  0  0  0  0  0  0  0  0  0
   -0.6828   -1.6138    1.3142 H   0  0  0  0  0  0  0  0  0  0  0  0
   -1.5419   -1.8607   -0.2718 H   0  0  0  0  0  0  0  0  0  0  0  0
    0.8345   -1.6283   -0.9512 H   0  0  0  0  0  0  0  0  0  0  0  0
    0.4135    0.6288   -2.1024 H   0  0  0  0  0  0  0  0  0  0  0  0
   -1.1985   -0.2665   -1.9302 H   0  0  0  0  0  0  0  0  0  0  0  0
  1  2  2  0
  2  3  1  0
  3  4  2  0
  4  5  1  0
  5  6  1  0
  6  7  1  0
  7  8  1  0
  8  9  1  0
  8  3  1  0
  9  5  1  0
  2 10  1  0
  4 11  1  0
  5 12  1  0
  6 13  1  0
  6 14  1  0
  7 15  1  0
  7 16  1  0
  8 17  1  0
  9 18  1  0
  9 19  1  0
M  END
