
     RDKit          3D

 19 19  0  0  0  0  0  0  0  0999 V2000
    3.4278    0.3602   -0.4618 O   0  0  0  0  0  0  0  0  0  0  0  0
    2.6010   -0.5589   -0.3247 C   0  0  0  0  0  0  0  0  0  0  0  0
    1.1642   -0.2036   -0.3195 C   0  0  0  0  0  0  0  0  0  0  0  0
    0.2969   -1.1832   -0.1738 C   0  0  0  0  0  0  0  0  0  0  0  0
   -1.1441   -1.3206   -0.1097 C   0  0  0  0  0  0  0  0  0  0  0  0
   -1.9470   -0.1116    0.0986 C   0  0  0  0  0  0  0  0  0  0  0  0
   -1.2825    0.9851    0.8401 C   0  0  0  0  0  0  0  0  0  0  0  0
   -0.1093    1.5765    0.6230 C   0  0  0  0  0  0  0  0  0  0  0  0
    0.8225    1.2272   -0.4788 C   0  0  0  0  0  0  0  0  0  0  0  0
    2.9059   -1.5895   -0.2117 H   0  0  0  0  0  0  0  0  0  0  0  0
    0.8210   -2.1494   -0.0756 H   0  0  0  0  0  0  0  0  0  0  0  0
   -1.4987   -1.8389   -1.0495 H   0  0  0  0  0  0  0  0  0  0  0  0
   -1.3811   -2.0776    0.6965 H   0  0  0  0  0  0  0  0  0  0  0  0
   -2.8698   -0.3840    0.6747 H   0  0  0  0  0  0  0  0  0  0  0  0
   -2.3418    0.2464   -0.8945 H   0  0  0  0  0  0  0  0  0  0  0  0
   -1.7907    1.4060    1.7024 H   0  0  0  0  0  0  0  0  0  0  0  0
    0.2232    2.3742    1.2765 H   0  0  0  0  0  0  0  0  0  0  0  0
    0.3217    1.4359   -1.4389 H   0  0  0  0  0  0  0  0  0  0  0  0
    1.7807    1.8056   -0.3733 H   0  0  0  0  0  0  0  0  0  0  0  0
  1  2  2  0
  2  3  1  0
  3  4  2  0
  4  5  1  0
  5  6  1  0
  6  7  1  0
  7  8  2  0
  8  9  1  0
  9  3  1  0
  2 10  1  0
  4 11  1  0
  5 12  1  0
  5 13  1  0
  6 14  1  0
  6 15  1  0
  7 16  1  0
  8 17  1  0
  9 18  1  0
  9 19  1  0
M  END
