
     RDKit          3D

 19 20  0  0  0  0  0  0  0  0999 V2000
   -2.4599    1.4064   -0.8502 O   0  0  0  0  0  0  0  0  0  0  0  0
   -1.2952    1.5832   -0.6012 C   0  0  0  0  0  0  0  0  0  0  0  0
   -0.6622    0.8220    0.4900 C   0  0  0  0  0  0  0  0  0  0  0  0
   -1.5301   -0.0298    1.1072 O   0  0  0  0  0  0  0  0  0  0  0  0
   -1.3495   -1.3019    0.6520 C   0  0  0  0  0  0  0  0  0  0  0  0
   -0.1467   -1.3409   -0.2404 C   0  0  0  0  0  0  0  0  0  0  0  0
    0.4802   -0.0092   -0.0274 C   0  0  0  0  0  0  0  0  0  0  0  0
    1.8295    0.0531    0.5271 C   0  0  0  0  0  0  0  0  0  0  0  0
    1.5029    0.6000   -0.8468 C   0  0  0  0  0  0  0  0  0  0  0  0
   -0.7291    2.2879   -1.1701 H   0  0  0  0  0  0  0  0  0  0  0  0
   -0.2034    1.5774    1.1927 H   0  0  0  0  0  0  0  0  0  0  0  0
   -1.2143   -1.9668    1.5555 H   0  0  0  0  0  0  0  0  0  0  0  0
   -2.2486   -1.7275    0.1347 H   0  0  0  0  0  0  0  0  0  0  0  0
    0.5256   -2.1504    0.1160 H   0  0  0  0  0  0  0  0  0  0  0  0
   -0.4061   -1.5571   -1.2945 H   0  0  0  0  0  0  0  0  0  0  0  0
    2.4328   -0.8779    0.5210 H   0  0  0  0  0  0  0  0  0  0  0  0
    2.0010    0.7495    1.3653 H   0  0  0  0  0  0  0  0  0  0  0  0
    1.5051    1.7249   -0.8906 H   0  0  0  0  0  0  0  0  0  0  0  0
    1.9678    0.1572   -1.7405 H   0  0  0  0  0  0  0  0  0  0  0  0
  1  2  2  0
  2  3  1  0
  3  4  1  0
  4  5  1  0
  5  6  1  0
  6  7  1  0
  7  8  1  0
  8  9  1  0
  7  3  1  0
  9  7  1  0
  2 10  1  0
  3 11  1  0
  5 12  1  0
  5 13  1  0
  6 14  1  0
  6 15  1  0
  8 16  1  0
  8 17  1  0
  9 18  1  0
  9 19  1  0
M  END
