
     RDKit          3D

 16 16  0  0  0  0  0  0  0  0999 V2000
    2.0237   -0.3831    1.3762 O   0  0  0  0  0  0  0  0  0  0  0  0
    1.7971    0.4595    0.5378 C   0  0  0  0  0  0  0  0  0  0  0  0
    0.7254    0.2632   -0.4505 C   0  0  0  0  0  0  0  0  0  0  0  0
    0.4806   -1.1946   -0.7290 C   0  0  0  0  0  0  0  0  0  0  0  0
   -0.7600   -1.5263   -0.2726 O   0  0  0  0  0  0  0  0  0  0  0  0
   -1.5078   -0.4016   -0.0808 C   0  0  0  0  0  0  0  0  0  0  0  0
   -0.6077    0.7831    0.0186 C   0  0  0  0  0  0  0  0  0  0  0  0
   -0.5675    1.3305    1.2873 O   0  0  0  0  0  0  0  0  0  0  0  0
    2.3988    1.3498    0.5370 H   0  0  0  0  0  0  0  0  0  0  0  0
    0.9572    0.7388   -1.4421 H   0  0  0  0  0  0  0  0  0  0  0  0
    1.2313   -1.7836   -0.1312 H   0  0  0  0  0  0  0  0  0  0  0  0
    0.5572   -1.4512   -1.8034 H   0  0  0  0  0  0  0  0  0  0  0  0
   -2.0850   -0.4566    0.8875 H   0  0  0  0  0  0  0  0  0  0  0  0
   -2.2765   -0.3118   -0.8686 H   0  0  0  0  0  0  0  0  0  0  0  0
   -1.0187    1.5791   -0.6643 H   0  0  0  0  0  0  0  0  0  0  0  0
   -1.3483    1.0047    1.7980 H   0  0  0  0  0  0  0  0  0  0  0  0
  1  2  2  0
  2  3  1  0
  3  4  1  0
  4  5  1  0
  5  6  1  0
  6  7  1  0
  7  8  1  0
  7  3  1  0
  2  9  1  0
  3 10  1  0
  4 11  1  0
  4 12  1  0
  6 13  1  0
  6 14  1  0
  7 15  1  0
  8 16  1  0
M  END
