
     RDKit          3D

 19 20  0  0  0  0  0  0  0  0999 V2000
   -2.0377   -1.9274   -0.8185 O   0  0  0  0  0  0  0  0  0  0  0  0
   -0.9765   -1.3865   -0.5537 C   0  0  0  0  0  0  0  0  0  0  0  0
   -0.9357   -0.3539    0.5170 C   0  0  0  0  0  0  0  0  0  0  0  0
   -1.8438    0.8110    0.0969 C   0  0  0  0  0  0  0  0  0  0  0  0
   -0.6535    1.2411   -0.7771 C   0  0  0  0  0  0  0  0  0  0  0  0
    0.2036    0.6549    0.3409 C   0  0  0  0  0  0  0  0  0  0  0  0
    1.4974    0.0806   -0.1080 C   0  0  0  0  0  0  0  0  0  0  0  0
    2.2555   -0.9143    0.5964 C   0  0  0  0  0  0  0  0  0  0  0  0
    2.6249    0.4411    0.7931 O   0  0  0  0  0  0  0  0  0  0  0  0
   -0.1125   -1.6884   -1.1162 H   0  0  0  0  0  0  0  0  0  0  0  0
   -1.0878   -0.7038    1.5337 H   0  0  0  0  0  0  0  0  0  0  0  0
   -2.7344    0.5289   -0.4536 H   0  0  0  0  0  0  0  0  0  0  0  0
   -1.9591    1.4939    0.9605 H   0  0  0  0  0  0  0  0  0  0  0  0
   -0.5452    2.3219   -0.8922 H   0  0  0  0  0  0  0  0  0  0  0  0
   -0.6079    0.6264   -1.6970 H   0  0  0  0  0  0  0  0  0  0  0  0
    0.2454    1.3250    1.2200 H   0  0  0  0  0  0  0  0  0  0  0  0
    1.8176    0.3633   -1.1442 H   0  0  0  0  0  0  0  0  0  0  0  0
    1.8514   -1.3993    1.5026 H   0  0  0  0  0  0  0  0  0  0  0  0
    2.9981   -1.5144   -0.0007 H   0  0  0  0  0  0  0  0  0  0  0  0
  1  2  2  0
  2  3  1  0
  3  4  1  0
  4  5  1  0
  5  6  1  0
  6  7  1  0
  7  8  1  0
  8  9  1  0
  6  3  1  0
  9  7  1  0
  2 10  1  0
  3 11  1  0
  4 12  1  0
  4 13  1  0
  5 14  1  0
  5 15  1  0
  6 16  1  0
  7 17  1  0
  8 18  1  0
  8 19  1  0
M  END
