
     RDKit          3D

 19 19  0  0  0  0  0  0  0  0999 V2000
    2.5788    0.9209    0.9208 O   0  0  0  0  0  0  0  0  0  0  0  0
    2.3125    0.3425   -0.1171 C   0  0  0  0  0  0  0  0  0  0  0  0
    0.9699   -0.2003   -0.3627 C   0  0  0  0  0  0  0  0  0  0  0  0
    0.4968   -1.1538    0.7052 C   0  0  0  0  0  0  0  0  0  0  0  0
   -0.9752   -0.9197    0.8950 C   0  0  0  0  0  0  0  0  0  0  0  0
   -1.3414    0.2517    0.0366 C   0  0  0  0  0  0  0  0  0  0  0  0
   -2.0473    1.2381    0.7331 O   0  0  0  0  0  0  0  0  0  0  0  0
   -0.0824    0.8561   -0.4850 C   0  0  0  0  0  0  0  0  0  0  0  0
   -0.2660    1.1019   -1.8599 O   0  0  0  0  0  0  0  0  0  0  0  0
    3.1266    0.2585   -0.8366 H   0  0  0  0  0  0  0  0  0  0  0  0
    1.0243   -0.8053   -1.3133 H   0  0  0  0  0  0  0  0  0  0  0  0
    0.9985   -0.9855    1.6734 H   0  0  0  0  0  0  0  0  0  0  0  0
    0.6574   -2.2184    0.4058 H   0  0  0  0  0  0  0  0  0  0  0  0
   -1.5778   -1.8072    0.6075 H   0  0  0  0  0  0  0  0  0  0  0  0
   -1.2236   -0.7270    1.9669 H   0  0  0  0  0  0  0  0  0  0  0  0
   -2.0195   -0.0851   -0.7997 H   0  0  0  0  0  0  0  0  0  0  0  0
   -2.2943    1.9217    0.0401 H   0  0  0  0  0  0  0  0  0  0  0  0
    0.1911    1.8056    0.0265 H   0  0  0  0  0  0  0  0  0  0  0  0
   -0.5283    0.2052   -2.2367 H   0  0  0  0  0  0  0  0  0  0  0  0
  1  2  2  0
  2  3  1  0
  3  4  1  0
  4  5  1  0
  5  6  1  0
  6  7  1  0
  6  8  1  0
  8  9  1  0
  8  3  1  0
  2 10  1  0
  3 11  1  0
  4 12  1  0
  4 13  1  0
  5 14  1  0
  5 15  1  0
  6 16  1  0
  7 17  1  0
  8 18  1  0
  9 19  1  0
M  END
