
     RDKit          3D

 19 19  0  0  0  0  0  0  0  0999 V2000
    3.2386   -0.4976   -0.1214 O   0  0  0  0  0  0  0  0  0  0  0  0
    2.1045   -0.9020   -0.1077 C   0  0  0  0  0  0  0  0  0  0  0  0
    0.9668   -0.0052   -0.5353 C   0  0  0  0  0  0  0  0  0  0  0  0
   -0.1949   -0.8895   -0.8205 C   0  0  0  0  0  0  0  0  0  0  0  0
   -1.5305   -0.2272   -0.6794 C   0  0  0  0  0  0  0  0  0  0  0  0
   -1.6191    0.1822    0.7988 C   0  0  0  0  0  0  0  0  0  0  0  0
   -0.5981    1.2464    0.9481 C   0  0  0  0  0  0  0  0  0  0  0  0
   -0.9141    2.2960    1.4461 O   0  0  0  0  0  0  0  0  0  0  0  0
    0.7708    1.0271    0.4985 C   0  0  0  0  0  0  0  0  0  0  0  0
    1.9339   -1.9227    0.2197 H   0  0  0  0  0  0  0  0  0  0  0  0
    1.2676    0.4714   -1.5137 H   0  0  0  0  0  0  0  0  0  0  0  0
   -0.0374   -1.3564   -1.8236 H   0  0  0  0  0  0  0  0  0  0  0  0
   -0.1858   -1.7524   -0.0952 H   0  0  0  0  0  0  0  0  0  0  0  0
   -1.5916    0.6807   -1.3022 H   0  0  0  0  0  0  0  0  0  0  0  0
   -2.3093   -0.9749   -0.9253 H   0  0  0  0  0  0  0  0  0  0  0  0
   -2.6215    0.4793    1.0872 H   0  0  0  0  0  0  0  0  0  0  0  0
   -1.2431   -0.6992    1.3887 H   0  0  0  0  0  0  0  0  0  0  0  0
    1.1644    2.0179    0.1236 H   0  0  0  0  0  0  0  0  0  0  0  0
    1.3989    0.8261    1.4137 H   0  0  0  0  0  0  0  0  0  0  0  0
  1  2  2  0
  2  3  1  0
  3  4  1  0
  4  5  1  0
  5  6  1  0
  6  7  1  0
  7  8  2  0
  7  9  1  0
  9  3  1  0
  2 10  1  0
  3 11  1  0
  4 12  1  0
  4 13  1  0
  5 14  1  0
  5 15  1  0
  6 16  1  0
  6 17  1  0
  9 18  1  0
  9 19  1  0
M  END
