
     RDKit          3D

 18 19  0  0  0  0  0  0  0  0999 V2000
    2.3095   -0.7002    2.1014 O   0  0  0  0  0  0  0  0  0  0  0  0
    1.9614   -0.2144    1.0462 C   0  0  0  0  0  0  0  0  0  0  0  0
    0.6852   -0.5850    0.4547 C   0  0  0  0  0  0  0  0  0  0  0  0
    0.4570    0.0659   -0.9124 C   0  0  0  0  0  0  0  0  0  0  0  0
   -0.8766   -0.5007   -1.2852 C   0  0  0  0  0  0  0  0  0  0  0  0
   -1.6025   -0.3377    0.0660 C   0  0  0  0  0  0  0  0  0  0  0  0
   -0.5012    0.3081    0.8486 C   0  0  0  0  0  0  0  0  0  0  0  0
    0.0715    1.3063   -0.1288 C   0  0  0  0  0  0  0  0  0  0  0  0
    2.6141    0.4927    0.5604 H   0  0  0  0  0  0  0  0  0  0  0  0
    0.3905   -1.6506    0.5043 H   0  0  0  0  0  0  0  0  0  0  0  0
    1.2585    0.1031   -1.5948 H   0  0  0  0  0  0  0  0  0  0  0  0
   -1.3831    0.0399   -2.0851 H   0  0  0  0  0  0  0  0  0  0  0  0
   -0.7888   -1.5729   -1.5296 H   0  0  0  0  0  0  0  0  0  0  0  0
   -2.5054    0.2786   -0.0378 H   0  0  0  0  0  0  0  0  0  0  0  0
   -1.7780   -1.3396    0.4831 H   0  0  0  0  0  0  0  0  0  0  0  0
   -0.6171    0.5613    1.8649 H   0  0  0  0  0  0  0  0  0  0  0  0
    0.9708    1.7840    0.2758 H   0  0  0  0  0  0  0  0  0  0  0  0
   -0.6658    1.9612   -0.6315 H   0  0  0  0  0  0  0  0  0  0  0  0
  1  2  2  0
  2  3  1  0
  3  4  1  0
  4  5  1  0
  5  6  1  0
  6  7  1  0
  7  8  1  0
  7  3  1  0
  8  4  1  0
  2  9  1  0
  3 10  1  0
  4 11  1  0
  5 12  1  0
  5 13  1  0
  6 14  1  0
  6 15  1  0
  7 16  1  0
  8 17  1  0
  8 18  1  0
M  END
