
     RDKit          3D

 19 19  0  0  0  0  0  0  0  0999 V2000
    0.3116   -2.5578    0.4763 O   0  0  0  0  0  0  0  0  0  0  0  0
    0.4484   -1.4855    1.0105 C   0  0  0  0  0  0  0  0  0  0  0  0
    0.3547   -0.2567    0.1781 C   0  0  0  0  0  0  0  0  0  0  0  0
    1.7242    0.1037   -0.3311 C   0  0  0  0  0  0  0  0  0  0  0  0
    1.7085    1.2491   -1.1211 O   0  0  0  0  0  0  0  0  0  0  0  0
   -0.6610   -0.4517   -0.8960 C   0  0  0  0  0  0  0  0  0  0  0  0
   -1.8963    0.2185   -0.2894 C   0  0  0  0  0  0  0  0  0  0  0  0
   -1.5971    0.4236    1.0530 O   0  0  0  0  0  0  0  0  0  0  0  0
   -0.2562    0.8510    0.9933 C   0  0  0  0  0  0  0  0  0  0  0  0
    0.6367   -1.3959    2.0756 H   0  0  0  0  0  0  0  0  0  0  0  0
    2.2566   -0.7387   -0.7878 H   0  0  0  0  0  0  0  0  0  0  0  0
    2.3296    0.3813    0.5819 H   0  0  0  0  0  0  0  0  0  0  0  0
    0.8254    1.5877   -1.3183 H   0  0  0  0  0  0  0  0  0  0  0  0
   -0.9008   -1.5096   -1.0736 H   0  0  0  0  0  0  0  0  0  0  0  0
   -0.4216    0.0607   -1.8438 H   0  0  0  0  0  0  0  0  0  0  0  0
   -2.0403    1.2097   -0.7562 H   0  0  0  0  0  0  0  0  0  0  0  0
   -2.7800   -0.4449   -0.3723 H   0  0  0  0  0  0  0  0  0  0  0  0
    0.1865    0.9634    1.9954 H   0  0  0  0  0  0  0  0  0  0  0  0
   -0.2287    1.7921    0.4255 H   0  0  0  0  0  0  0  0  0  0  0  0
  1  2  2  0
  2  3  1  0
  3  4  1  0
  4  5  1  0
  3  6  1  0
  6  7  1  0
  7  8  1  0
  8  9  1  0
  9  3  1  0
  2 10  1  0
  4 11  1  0
  4 12  1  0
  5 13  1  0
  6 14  1  0
  6 15  1  0
  7 16  1  0
  7 17  1  0
  9 18  1  0
  9 19  1  0
M  END
