
     RDKit          3D

 17 17  0  0  0  0  0  0  0  0999 V2000
    3.3597    0.2495   -0.4192 O   0  0  0  0  0  0  0  0  0  0  0  0
    2.3496   -0.4132   -0.2776 C   0  0  0  0  0  0  0  0  0  0  0  0
    1.1695    0.1062    0.4494 C   0  0  0  0  0  0  0  0  0  0  0  0
    1.4435    1.4022    0.8952 O   0  0  0  0  0  0  0  0  0  0  0  0
   -0.0599    0.1844   -0.4178 C   0  0  0  0  0  0  0  0  0  0  0  0
   -1.2897    0.7026    0.2588 C   0  0  0  0  0  0  0  0  0  0  0  0
   -2.0171   -0.4951   -0.3031 C   0  0  0  0  0  0  0  0  0  0  0  0
   -0.7206   -1.0994   -0.7206 C   0  0  0  0  0  0  0  0  0  0  0  0
   -0.4519   -2.2205   -1.1298 O   0  0  0  0  0  0  0  0  0  0  0  0
    2.3443   -1.4062   -0.7063 H   0  0  0  0  0  0  0  0  0  0  0  0
    0.9821   -0.5612    1.3171 H   0  0  0  0  0  0  0  0  0  0  0  0
    0.8917    1.6780    1.6563 H   0  0  0  0  0  0  0  0  0  0  0  0
    0.1540    0.7933   -1.3280 H   0  0  0  0  0  0  0  0  0  0  0  0
   -1.2472    0.6627    1.3798 H   0  0  0  0  0  0  0  0  0  0  0  0
   -1.6758    1.6763   -0.0825 H   0  0  0  0  0  0  0  0  0  0  0  0
   -2.5820   -1.0976    0.4318 H   0  0  0  0  0  0  0  0  0  0  0  0
   -2.6502   -0.1620   -1.1658 H   0  0  0  0  0  0  0  0  0  0  0  0
  1  2  2  0
  2  3  1  0
  3  4  1  0
  3  5  1  0
  5  6  1  0
  6  7  1  0
  7  8  1  0
  8  9  2  0
  8  5  1  0
  2 10  1  0
  3 11  1  0
  4 12  1  0
  5 13  1  0
  6 14  1  0
  6 15  1  0
  7 16  1  0
  7 17  1  0
M  END
