
     RDKit          3D

 17 16  0  0  0  0  0  0  0  0999 V2000
   -2.5049    1.1169   -1.7565 O   0  0  0  0  0  0  0  0  0  0  0  0
   -1.6245    1.1125   -0.8901 C   0  0  0  0  0  0  0  0  0  0  0  0
   -1.1213   -0.1728   -0.3515 C   0  0  0  0  0  0  0  0  0  0  0  0
   -2.2655   -0.8730    0.2726 C   0  0  0  0  0  0  0  0  0  0  0  0
   -3.2152   -1.2177   -0.3874 O   0  0  0  0  0  0  0  0  0  0  0  0
   -0.1413    0.1281    0.6027 O   0  0  0  0  0  0  0  0  0  0  0  0
    1.0596   -0.4123    0.1853 C   0  0  0  0  0  0  0  0  0  0  0  0
    2.1646   -0.1271    1.1669 C   0  0  0  0  0  0  0  0  0  0  0  0
    2.3916    1.2153    1.3599 O   0  0  0  0  0  0  0  0  0  0  0  0
   -1.2580    2.0586   -0.5613 H   0  0  0  0  0  0  0  0  0  0  0  0
   -0.6815   -0.7676   -1.1969 H   0  0  0  0  0  0  0  0  0  0  0  0
   -2.2385   -1.0714    1.3278 H   0  0  0  0  0  0  0  0  0  0  0  0
    0.9697   -1.5126    0.0996 H   0  0  0  0  0  0  0  0  0  0  0  0
    1.3874   -0.0266   -0.7988 H   0  0  0  0  0  0  0  0  0  0  0  0
    3.0735   -0.6591    0.7855 H   0  0  0  0  0  0  0  0  0  0  0  0
    1.9445   -0.5768    2.1658 H   0  0  0  0  0  0  0  0  0  0  0  0
    2.0599    1.7855    0.5990 H   0  0  0  0  0  0  0  0  0  0  0  0
  1  2  2  0
  2  3  1  0
  3  4  1  0
  4  5  2  0
  3  6  1  0
  6  7  1  0
  7  8  1  0
  8  9  1  0
  2 10  1  0
  3 11  1  0
  4 12  1  0
  7 13  1  0
  7 14  1  0
  8 15  1  0
  8 16  1  0
  9 17  1  0
M  END
