
     RDKit          3D

 17 18  0  0  0  0  0  0  0  0999 V2000
   -3.0066    0.1127   -0.5458 O   0  0  0  0  0  0  0  0  0  0  0  0
   -1.9540    0.5512   -0.9239 C   0  0  0  0  0  0  0  0  0  0  0  0
   -0.7562    0.4842   -0.0499 C   0  0  0  0  0  0  0  0  0  0  0  0
   -1.0341   -0.4055    1.1802 C   0  0  0  0  0  0  0  0  0  0  0  0
    0.1158   -1.2332    1.3045 O   0  0  0  0  0  0  0  0  0  0  0  0
    1.0749   -0.4231    0.7939 C   0  0  0  0  0  0  0  0  0  0  0  0
    1.7484   -0.3144   -0.4386 C   0  0  0  0  0  0  0  0  0  0  0  0
    2.4467    0.8766   -0.7600 O   0  0  0  0  0  0  0  0  0  0  0  0
    0.3589   -0.3046   -0.6152 C   0  0  0  0  0  0  0  0  0  0  0  0
   -1.8530    0.9948   -1.8856 H   0  0  0  0  0  0  0  0  0  0  0  0
   -0.4820    1.4654    0.3534 H   0  0  0  0  0  0  0  0  0  0  0  0
   -1.8436   -1.0875    0.8751 H   0  0  0  0  0  0  0  0  0  0  0  0
   -1.2172    0.1772    2.0743 H   0  0  0  0  0  0  0  0  0  0  0  0
    1.0898    0.5278    1.4130 H   0  0  0  0  0  0  0  0  0  0  0  0
    2.3611   -1.1849   -0.7812 H   0  0  0  0  0  0  0  0  0  0  0  0
    3.0269    1.0423    0.0247 H   0  0  0  0  0  0  0  0  0  0  0  0
   -0.0759   -1.2792   -1.0089 H   0  0  0  0  0  0  0  0  0  0  0  0
  1  2  2  0
  2  3  1  0
  3  4  1  0
  4  5  1  0
  5  6  1  0
  6  7  1  0
  7  8  1  0
  7  9  1  0
  9  3  1  0
  9  6  1  0
  2 10  1  0
  3 11  1  0
  4 12  1  0
  4 13  1  0
  6 14  1  0
  7 15  1  0
  8 16  1  0
  9 17  1  0
M  END
