
     RDKit          3D

 16 16  0  0  0  0  0  0  0  0999 V2000
    3.0490   -0.5331   -1.4794 O   0  0  0  0  0  0  0  0  0  0  0  0
    2.7784   -0.1439   -0.3506 C   0  0  0  0  0  0  0  0  0  0  0  0
    1.6620    0.8000   -0.0855 C   0  0  0  0  0  0  0  0  0  0  0  0
    0.3795    0.0631   -0.0724 C   0  0  0  0  0  0  0  0  0  0  0  0
    0.3927   -1.1401   -0.2613 O   0  0  0  0  0  0  0  0  0  0  0  0
   -0.9137    0.7776    0.1680 C   0  0  0  0  0  0  0  0  0  0  0  0
   -2.1349    0.2781   -0.4978 C   0  0  0  0  0  0  0  0  0  0  0  0
   -1.9387   -0.0075    0.9463 C   0  0  0  0  0  0  0  0  0  0  0  0
    3.3825   -0.5132    0.4636 H   0  0  0  0  0  0  0  0  0  0  0  0
    1.8243    1.3830    0.8400 H   0  0  0  0  0  0  0  0  0  0  0  0
    1.6190    1.4726   -0.9819 H   0  0  0  0  0  0  0  0  0  0  0  0
   -0.8589    1.8598    0.3323 H   0  0  0  0  0  0  0  0  0  0  0  0
   -2.9848    0.9413   -0.7217 H   0  0  0  0  0  0  0  0  0  0  0  0
   -2.0202   -0.5524   -1.2261 H   0  0  0  0  0  0  0  0  0  0  0  0
   -1.7606   -1.0619    1.2009 H   0  0  0  0  0  0  0  0  0  0  0  0
   -2.4756    0.5656    1.7256 H   0  0  0  0  0  0  0  0  0  0  0  0
  1  2  2  0
  2  3  1  0
  3  4  1  0
  4  5  2  0
  4  6  1  0
  6  7  1  0
  7  8  1  0
  8  6  1  0
  2  9  1  0
  3 10  1  0
  3 11  1  0
  6 12  1  0
  7 13  1  0
  7 14  1  0
  8 15  1  0
  8 16  1  0
M  END
