
     RDKit          3D

 21 22  0  0  0  0  0  0  0  0999 V2000
    3.3303   -0.5431    0.3149 O   0  0  0  0  0  0  0  0  0  0  0  0
    2.4423    0.2081   -0.0259 C   0  0  0  0  0  0  0  0  0  0  0  0
    1.1033    0.0459    0.5328 C   0  0  0  0  0  0  0  0  0  0  0  0
    0.2968    1.3459    0.5263 C   0  0  0  0  0  0  0  0  0  0  0  0
   -1.0042    0.9124   -0.0837 C   0  0  0  0  0  0  0  0  0  0  0  0
   -1.7136   -0.1253    0.7735 C   0  0  0  0  0  0  0  0  0  0  0  0
   -0.8542   -1.3860    0.6618 C   0  0  0  0  0  0  0  0  0  0  0  0
    0.2727   -0.9617   -0.2392 C   0  0  0  0  0  0  0  0  0  0  0  0
   -0.4668   -0.0156   -1.1895 C   0  0  0  0  0  0  0  0  0  0  0  0
    2.6495    0.9883   -0.7378 H   0  0  0  0  0  0  0  0  0  0  0  0
    1.1698   -0.2525    1.6070 H   0  0  0  0  0  0  0  0  0  0  0  0
    0.2160    1.7994    1.5109 H   0  0  0  0  0  0  0  0  0  0  0  0
    0.7990    2.0110   -0.2010 H   0  0  0  0  0  0  0  0  0  0  0  0
   -1.6385    1.6947   -0.4584 H   0  0  0  0  0  0  0  0  0  0  0  0
   -2.6625   -0.3612    0.2498 H   0  0  0  0  0  0  0  0  0  0  0  0
   -1.8386    0.1786    1.8085 H   0  0  0  0  0  0  0  0  0  0  0  0
   -0.4235   -1.5711    1.6640 H   0  0  0  0  0  0  0  0  0  0  0  0
   -1.4232   -2.2450    0.2881 H   0  0  0  0  0  0  0  0  0  0  0  0
    0.8201   -1.7395   -0.7242 H   0  0  0  0  0  0  0  0  0  0  0  0
    0.2441    0.4968   -1.8328 H   0  0  0  0  0  0  0  0  0  0  0  0
   -1.3187   -0.4802   -1.6676 H   0  0  0  0  0  0  0  0  0  0  0  0
  1  2  2  0
  2  3  1  0
  3  4  1  0
  4  5  1  0
  5  6  1  0
  6  7  1  0
  7  8  1  0
  8  9  1  0
  8  3  1  0
  9  5  1  0
  2 10  1  0
  3 11  1  0
  4 12  1  0
  4 13  1  0
  5 14  1  0
  6 15  1  0
  6 16  1  0
  7 17  1  0
  7 18  1  0
  8 19  1  0
  9 20  1  0
  9 21  1  0
M  END
