
     RDKit          3D

 21 20  0  0  0  0  0  0  0  0999 V2000
    2.8294    1.3686   -0.9789 O   0  0  0  0  0  0  0  0  0  0  0  0
    3.3945    0.3376   -0.6675 C   0  0  0  0  0  0  0  0  0  0  0  0
    2.8995   -0.6298    0.3360 C   0  0  0  0  0  0  0  0  0  0  0  0
    1.6819   -0.3287    0.8961 O   0  0  0  0  0  0  0  0  0  0  0  0
    0.6924   -0.3268   -0.0315 C   0  0  0  0  0  0  0  0  0  0  0  0
   -0.6763   -0.0039    0.5490 C   0  0  0  0  0  0  0  0  0  0  0  0
   -1.6114   -0.0601   -0.6652 C   0  0  0  0  0  0  0  0  0  0  0  0
   -3.0331    0.2419   -0.2561 C   0  0  0  0  0  0  0  0  0  0  0  0
   -3.1146    1.5135    0.3048 O   0  0  0  0  0  0  0  0  0  0  0  0
    4.3482    0.0873   -1.1582 H   0  0  0  0  0  0  0  0  0  0  0  0
    3.6885   -0.8111    1.1194 H   0  0  0  0  0  0  0  0  0  0  0  0
    2.8669   -1.6243   -0.2101 H   0  0  0  0  0  0  0  0  0  0  0  0
    0.8174    0.3623   -0.8814 H   0  0  0  0  0  0  0  0  0  0  0  0
    0.5854   -1.3801   -0.4164 H   0  0  0  0  0  0  0  0  0  0  0  0
   -0.9855   -0.6992    1.3309 H   0  0  0  0  0  0  0  0  0  0  0  0
   -0.6434    1.0259    0.9763 H   0  0  0  0  0  0  0  0  0  0  0  0
   -1.4998   -1.0838   -1.0714 H   0  0  0  0  0  0  0  0  0  0  0  0
   -1.2018    0.6867   -1.3814 H   0  0  0  0  0  0  0  0  0  0  0  0
   -3.6649    0.2333   -1.1447 H   0  0  0  0  0  0  0  0  0  0  0  0
   -3.3143   -0.5096    0.5066 H   0  0  0  0  0  0  0  0  0  0  0  0
   -4.0590    1.6003    0.6425 H   0  0  0  0  0  0  0  0  0  0  0  0
  1  2  2  0
  2  3  1  0
  3  4  1  0
  4  5  1  0
  5  6  1  0
  6  7  1  0
  7  8  1  0
  8  9  1  0
  2 10  1  0
  3 11  1  0
  3 12  1  0
  5 13  1  0
  5 14  1  0
  6 15  1  0
  6 16  1  0
  7 17  1  0
  7 18  1  0
  8 19  1  0
  8 20  1  0
  9 21  1  0
M  END
