
     RDKit          3D

 17 18  0  0  0  0  0  0  0  0999 V2000
    3.0168    0.7732   -0.3092 O   0  0  0  0  0  0  0  0  0  0  0  0
    1.8613    0.7835   -0.7193 C   0  0  0  0  0  0  0  0  0  0  0  0
    0.9565   -0.2296   -0.1038 C   0  0  0  0  0  0  0  0  0  0  0  0
    1.3784   -1.5464   -0.2791 O   0  0  0  0  0  0  0  0  0  0  0  0
    0.3686    0.1661    1.2593 C   0  0  0  0  0  0  0  0  0  0  0  0
   -0.4642   -0.0142    0.0949 C   0  0  0  0  0  0  0  0  0  0  0  0
   -1.5542   -0.9662   -0.0875 C   0  0  0  0  0  0  0  0  0  0  0  0
   -2.4396    0.1378   -0.2078 O   0  0  0  0  0  0  0  0  0  0  0  0
   -1.3356    0.9568   -0.5466 C   0  0  0  0  0  0  0  0  0  0  0  0
    1.5413    1.4676   -1.4626 H   0  0  0  0  0  0  0  0  0  0  0  0
    1.6981   -1.9389    0.5745 H   0  0  0  0  0  0  0  0  0  0  0  0
    0.6251    1.1656    1.6530 H   0  0  0  0  0  0  0  0  0  0  0  0
    0.3583   -0.6344    2.0504 H   0  0  0  0  0  0  0  0  0  0  0  0
   -1.7707   -1.5661    0.8075 H   0  0  0  0  0  0  0  0  0  0  0  0
   -1.5764   -1.5436   -1.0198 H   0  0  0  0  0  0  0  0  0  0  0  0
   -1.3273    1.0454   -1.6628 H   0  0  0  0  0  0  0  0  0  0  0  0
   -1.3363    1.9433   -0.0410 H   0  0  0  0  0  0  0  0  0  0  0  0
  1  2  2  0
  2  3  1  0
  3  4  1  0
  3  5  1  0
  5  6  1  0
  6  7  1  0
  7  8  1  0
  8  9  1  0
  6  3  1  0
  9  6  1  0
  2 10  1  0
  4 11  1  0
  5 12  1  0
  5 13  1  0
  7 14  1  0
  7 15  1  0
  9 16  1  0
  9 17  1  0
M  END
