
     RDKit          3D

 17 17  0  0  0  0  0  0  0  0999 V2000
    2.3771    0.9169    1.3149 O   0  0  0  0  0  0  0  0  0  0  0  0
    2.4001    1.0219    0.0799 C   0  0  0  0  0  0  0  0  0  0  0  0
    1.3835    0.3894   -0.7263 C   0  0  0  0  0  0  0  0  0  0  0  0
    1.3789    0.4788   -2.0025 O   0  0  0  0  0  0  0  0  0  0  0  0
    0.2959   -0.3937   -0.1200 C   0  0  0  0  0  0  0  0  0  0  0  0
   -0.5576    0.4334    0.8350 C   0  0  0  0  0  0  0  0  0  0  0  0
   -1.8764   -0.2918    0.6260 C   0  0  0  0  0  0  0  0  0  0  0  0
   -1.9409   -0.2598   -0.7737 O   0  0  0  0  0  0  0  0  0  0  0  0
   -0.7266   -0.8301   -1.1373 C   0  0  0  0  0  0  0  0  0  0  0  0
    3.1681    1.5788   -0.4003 H   0  0  0  0  0  0  0  0  0  0  0  0
    0.6652   -1.2562    0.4607 H   0  0  0  0  0  0  0  0  0  0  0  0
   -0.2270    0.3356    1.8808 H   0  0  0  0  0  0  0  0  0  0  0  0
   -0.6246    1.4830    0.5261 H   0  0  0  0  0  0  0  0  0  0  0  0
   -2.7199    0.1921    1.1128 H   0  0  0  0  0  0  0  0  0  0  0  0
   -1.7359   -1.3568    0.8990 H   0  0  0  0  0  0  0  0  0  0  0  0
   -0.3930   -0.5008   -2.1560 H   0  0  0  0  0  0  0  0  0  0  0  0
   -0.8668   -1.9408   -1.1046 H   0  0  0  0  0  0  0  0  0  0  0  0
  1  2  2  0
  2  3  1  0
  3  4  2  0
  3  5  1  0
  5  6  1  0
  6  7  1  0
  7  8  1  0
  8  9  1  0
  9  5  1  0
  2 10  1  0
  5 11  1  0
  6 12  1  0
  6 13  1  0
  7 14  1  0
  7 15  1  0
  9 16  1  0
  9 17  1  0
M  END
