
     RDKit          3D

 17 16  0  0  0  0  0  0  0  0999 V2000
   -1.9853    1.1123    1.7927 O   0  0  0  0  0  0  0  0  0  0  0  0
   -2.2090    0.7828    0.6532 C   0  0  0  0  0  0  0  0  0  0  0  0
   -1.9308   -0.5776    0.1914 C   0  0  0  0  0  0  0  0  0  0  0  0
   -1.4084   -1.3335    1.2331 O   0  0  0  0  0  0  0  0  0  0  0  0
   -0.9611   -0.6378   -0.9589 C   0  0  0  0  0  0  0  0  0  0  0  0
    0.3084   -0.0473   -0.5544 C   0  0  0  0  0  0  0  0  0  0  0  0
    1.3572    0.4218   -0.2300 C   0  0  0  0  0  0  0  0  0  0  0  0
    2.6726    0.9917    0.1543 C   0  0  0  0  0  0  0  0  0  0  0  0
    3.4406    0.0496    0.8367 O   0  0  0  0  0  0  0  0  0  0  0  0
   -2.6185    1.5118   -0.0189 H   0  0  0  0  0  0  0  0  0  0  0  0
   -2.8828   -1.0584   -0.1762 H   0  0  0  0  0  0  0  0  0  0  0  0
   -1.4118   -2.2958    0.9438 H   0  0  0  0  0  0  0  0  0  0  0  0
   -1.3870   -0.0955   -1.8295 H   0  0  0  0  0  0  0  0  0  0  0  0
   -0.8087   -1.7127   -1.1964 H   0  0  0  0  0  0  0  0  0  0  0  0
    3.2317    1.3218   -0.7530 H   0  0  0  0  0  0  0  0  0  0  0  0
    2.4463    1.8728    0.7812 H   0  0  0  0  0  0  0  0  0  0  0  0
    4.1466   -0.3061    0.2406 H   0  0  0  0  0  0  0  0  0  0  0  0
  1  2  2  0
  2  3  1  0
  3  4  1  0
  3  5  1  0
  5  6  1  0
  6  7  3  0
  7  8  1  0
  8  9  1  0
  2 10  1  0
  3 11  1  0
  4 12  1  0
  5 13  1  0
  5 14  1  0
  8 15  1  0
  8 16  1  0
  9 17  1  0
M  END
