
     RDKit          3D

  8  7  0  0  0  0  0  0  0  0999 V2000
    1.9764    0.4038   -0.2092 O   0  0  0  0  0  0  0  0  0  0  0  0
    0.9412   -0.2148   -0.0347 C   0  0  0  0  0  0  0  0  0  0  0  0
   -0.3781    0.4920    0.0704 C   0  0  0  0  0  0  0  0  0  0  0  0
   -1.4185   -0.3852    0.2660 O   0  0  0  0  0  0  0  0  0  0  0  0
    0.9673   -1.2963    0.0472 H   0  0  0  0  0  0  0  0  0  0  0  0
   -0.2824    1.2575    0.8536 H   0  0  0  0  0  0  0  0  0  0  0  0
   -0.5235    1.0155   -0.8950 H   0  0  0  0  0  0  0  0  0  0  0  0
   -1.2825   -1.2723   -0.0983 H   0  0  0  0  0  0  0  0  0  0  0  0
  1  2  2  0
  2  3  1  0
  3  4  1  0
  2  5  1  0
  3  6  1  0
  3  7  1  0
  4  8  1  0
M  END
