
     RDKit          3D

 21 22  0  0  0  0  0  0  0  0999 V2000
    1.4699    1.7935   -0.8138 O   0  0  0  0  0  0  0  0  0  0  0  0
    2.2307    1.0654   -0.2514 C   0  0  0  0  0  0  0  0  0  0  0  0
    2.1520   -0.3716    0.0079 C   0  0  0  0  0  0  0  0  0  0  0  0
    0.8590   -1.0316   -0.3154 C   0  0  0  0  0  0  0  0  0  0  0  0
   -0.2490   -0.5658    0.5294 C   0  0  0  0  0  0  0  0  0  0  0  0
   -0.7452    0.7897    0.6109 C   0  0  0  0  0  0  0  0  0  0  0  0
   -1.4500    0.5942   -0.6919 C   0  0  0  0  0  0  0  0  0  0  0  0
   -1.6542   -0.7026   -0.0038 C   0  0  0  0  0  0  0  0  0  0  0  0
   -2.0250    0.1398    1.1911 C   0  0  0  0  0  0  0  0  0  0  0  0
    3.1538    1.5711    0.1369 H   0  0  0  0  0  0  0  0  0  0  0  0
    2.2808   -0.4737    1.1412 H   0  0  0  0  0  0  0  0  0  0  0  0
    3.0302   -0.9237   -0.4391 H   0  0  0  0  0  0  0  0  0  0  0  0
    0.6187   -0.9611   -1.4174 H   0  0  0  0  0  0  0  0  0  0  0  0
    1.0448   -2.1471   -0.1811 H   0  0  0  0  0  0  0  0  0  0  0  0
   -0.2477   -1.0461    1.5806 H   0  0  0  0  0  0  0  0  0  0  0  0
   -0.3886    1.6516    1.0227 H   0  0  0  0  0  0  0  0  0  0  0  0
   -2.3466    1.2331   -0.8616 H   0  0  0  0  0  0  0  0  0  0  0  0
   -0.8456    0.5735   -1.6083 H   0  0  0  0  0  0  0  0  0  0  0  0
   -2.0979   -1.5460   -0.3052 H   0  0  0  0  0  0  0  0  0  0  0  0
   -1.8709   -0.4083    2.1242 H   0  0  0  0  0  0  0  0  0  0  0  0
   -2.9191    0.7656    1.0791 H   0  0  0  0  0  0  0  0  0  0  0  0
  1  2  2  0
  2  3  1  0
  3  4  1  0
  4  5  1  0
  5  6  1  0
  6  7  1  0
  7  8  1  0
  8  9  1  0
  8  5  1  0
  9  6  1  0
  2 10  1  0
  3 11  1  0
  3 12  1  0
  4 13  1  0
  4 14  1  0
  5 15  1  0
  6 16  1  0
  7 17  1  0
  7 18  1  0
  8 19  1  0
  9 20  1  0
  9 21  1  0
M  END
