
     RDKit          3D

 10  9  0  0  0  0  0  0  0  0999 V2000
    1.3697    1.2552   -0.3496 O   0  0  0  0  0  0  0  0  0  0  0  0
    1.3870    0.3136    0.4867 C   0  0  0  0  0  0  0  0  0  0  0  0
    0.2274   -0.5587    0.5093 C   0  0  0  0  0  0  0  0  0  0  0  0
    0.2332   -1.5177    1.3536 O   0  0  0  0  0  0  0  0  0  0  0  0
   -0.9275   -0.3947   -0.3734 C   0  0  0  0  0  0  0  0  0  0  0  0
   -0.6982    0.7107   -1.1957 O   0  0  0  0  0  0  0  0  0  0  0  0
    2.2306    0.1828    1.1411 H   0  0  0  0  0  0  0  0  0  0  0  0
   -1.8563   -0.2616    0.2465 H   0  0  0  0  0  0  0  0  0  0  0  0
   -1.0049   -1.2812   -1.0316 H   0  0  0  0  0  0  0  0  0  0  0  0
   -0.9610    1.5517   -0.7868 H   0  0  0  0  0  0  0  0  0  0  0  0
  1  2  2  0
  2  3  1  0
  3  4  2  0
  3  5  1  0
  5  6  1  0
  2  7  1  0
  5  8  1  0
  5  9  1  0
  6 10  1  0
M  END
