
     RDKit          3D

 19 19  0  0  0  0  0  0  0  0999 V2000
    1.5426    1.1269   -1.7280 O   0  0  0  0  0  0  0  0  0  0  0  0
    1.9989    0.3102   -0.9608 C   0  0  0  0  0  0  0  0  0  0  0  0
    1.5591    0.3081    0.4314 C   0  0  0  0  0  0  0  0  0  0  0  0
    2.2258   -0.7173    1.0985 O   0  0  0  0  0  0  0  0  0  0  0  0
    0.0830    0.1725    0.6319 C   0  0  0  0  0  0  0  0  0  0  0  0
   -0.6875    1.2729   -0.0033 C   0  0  0  0  0  0  0  0  0  0  0  0
   -1.8559    0.8196   -0.4413 C   0  0  0  0  0  0  0  0  0  0  0  0
   -1.9617   -0.6303   -0.1321 C   0  0  0  0  0  0  0  0  0  0  0  0
   -0.5020   -1.0322   -0.0817 C   0  0  0  0  0  0  0  0  0  0  0  0
    2.7174   -0.3906   -1.3338 H   0  0  0  0  0  0  0  0  0  0  0  0
    1.8446    1.2852    0.9236 H   0  0  0  0  0  0  0  0  0  0  0  0
    1.5769   -1.3354    1.5507 H   0  0  0  0  0  0  0  0  0  0  0  0
   -0.1404    0.1037    1.7063 H   0  0  0  0  0  0  0  0  0  0  0  0
   -0.3672    2.2918   -0.1047 H   0  0  0  0  0  0  0  0  0  0  0  0
   -2.6538    1.3714   -0.9538 H   0  0  0  0  0  0  0  0  0  0  0  0
   -2.5400   -1.1907   -0.8744 H   0  0  0  0  0  0  0  0  0  0  0  0
   -2.4075   -0.7429    0.8812 H   0  0  0  0  0  0  0  0  0  0  0  0
   -0.1080   -1.0841   -1.1154 H   0  0  0  0  0  0  0  0  0  0  0  0
   -0.3242   -1.9386    0.5056 H   0  0  0  0  0  0  0  0  0  0  0  0
  1  2  2  0
  2  3  1  0
  3  4  1  0
  3  5  1  0
  5  6  1  0
  6  7  2  0
  7  8  1  0
  8  9  1  0
  9  5  1  0
  2 10  1  0
  3 11  1  0
  4 12  1  0
  5 13  1  0
  6 14  1  0
  7 15  1  0
  8 16  1  0
  8 17  1  0
  9 18  1  0
  9 19  1  0
M  END
