
     RDKit          3D

 17 18  0  0  0  0  0  0  0  0999 V2000
    3.7796    0.2857   -0.8026 O   0  0  0  0  0  0  0  0  0  0  0  0
    2.5927    0.5258   -0.7225 C   0  0  0  0  0  0  0  0  0  0  0  0
    1.6279   -0.4465   -0.1914 C   0  0  0  0  0  0  0  0  0  0  0  0
    0.9028    0.1953    0.9559 O   0  0  0  0  0  0  0  0  0  0  0  0
    0.2782   -0.3247   -0.2932 C   0  0  0  0  0  0  0  0  0  0  0  0
   -0.6844   -1.3919    0.1049 C   0  0  0  0  0  0  0  0  0  0  0  0
   -1.8595   -0.8209    0.3689 C   0  0  0  0  0  0  0  0  0  0  0  0
   -1.7647    0.6568    0.1671 C   0  0  0  0  0  0  0  0  0  0  0  0
   -0.6115    0.7193   -0.8470 C   0  0  0  0  0  0  0  0  0  0  0  0
    2.2479    1.4916   -1.0569 H   0  0  0  0  0  0  0  0  0  0  0  0
    2.0806   -1.4215    0.1308 H   0  0  0  0  0  0  0  0  0  0  0  0
   -0.5338   -2.4588    0.1887 H   0  0  0  0  0  0  0  0  0  0  0  0
   -2.7730   -1.3156    0.6853 H   0  0  0  0  0  0  0  0  0  0  0  0
   -1.3749    1.1286    1.0919 H   0  0  0  0  0  0  0  0  0  0  0  0
   -2.6775    1.1045   -0.2188 H   0  0  0  0  0  0  0  0  0  0  0  0
   -1.0354    0.3520   -1.8202 H   0  0  0  0  0  0  0  0  0  0  0  0
   -0.1948    1.7201   -0.9111 H   0  0  0  0  0  0  0  0  0  0  0  0
  1  2  2  0
  2  3  1  0
  3  4  1  0
  4  5  1  0
  5  6  1  0
  6  7  2  0
  7  8  1  0
  8  9  1  0
  5  3  1  0
  9  5  1  0
  2 10  1  0
  3 11  1  0
  6 12  1  0
  7 13  1  0
  8 14  1  0
  8 15  1  0
  9 16  1  0
  9 17  1  0
M  END
