
     RDKit          3D

 15 16  0  0  0  0  0  0  0  0999 V2000
    1.8100   -2.0438    0.8430 O   0  0  0  0  0  0  0  0  0  0  0  0
    2.2264   -1.0048    0.3375 C   0  0  0  0  0  0  0  0  0  0  0  0
    1.3578    0.1345    0.0232 C   0  0  0  0  0  0  0  0  0  0  0  0
    0.7526    0.6577    1.2831 O   0  0  0  0  0  0  0  0  0  0  0  0
    0.0288    0.2108    0.2126 C   0  0  0  0  0  0  0  0  0  0  0  0
   -0.9603    1.1045   -0.4888 C   0  0  0  0  0  0  0  0  0  0  0  0
   -1.9934    0.4727    0.3561 C   0  0  0  0  0  0  0  0  0  0  0  0
   -3.0757    0.7845    0.7726 O   0  0  0  0  0  0  0  0  0  0  0  0
   -1.0894   -0.6979    0.4461 C   0  0  0  0  0  0  0  0  0  0  0  0
    3.2852   -0.9704    0.1314 H   0  0  0  0  0  0  0  0  0  0  0  0
    1.9259    0.9970   -0.4367 H   0  0  0  0  0  0  0  0  0  0  0  0
   -0.7563    2.1730   -0.3041 H   0  0  0  0  0  0  0  0  0  0  0  0
   -1.0861    0.8072   -1.5486 H   0  0  0  0  0  0  0  0  0  0  0  0
   -1.2671   -1.3817   -0.4351 H   0  0  0  0  0  0  0  0  0  0  0  0
   -1.1583   -1.2433    1.4062 H   0  0  0  0  0  0  0  0  0  0  0  0
  1  2  2  0
  2  3  1  0
  3  4  1  0
  4  5  1  0
  5  6  1  0
  6  7  1  0
  7  8  2  0
  7  9  1  0
  5  3  1  0
  9  5  1  0
  2 10  1  0
  3 11  1  0
  6 12  1  0
  6 13  1  0
  9 14  1  0
  9 15  1  0
M  END
