
     RDKit          3D

 16 17  0  0  0  0  0  0  0  0999 V2000
    2.2666    2.0422    0.1127 O   0  0  0  0  0  0  0  0  0  0  0  0
    1.9124    0.8821    0.2363 C   0  0  0  0  0  0  0  0  0  0  0  0
    0.5638    0.4707    0.0331 C   0  0  0  0  0  0  0  0  0  0  0  0
    0.3151   -0.7110   -0.9194 C   0  0  0  0  0  0  0  0  0  0  0  0
   -0.9808   -0.7973   -0.1020 C   0  0  0  0  0  0  0  0  0  0  0  0
   -1.5771    0.5370   -0.3552 C   0  0  0  0  0  0  0  0  0  0  0  0
   -0.4133    1.3516   -0.3127 O   0  0  0  0  0  0  0  0  0  0  0  0
   -0.0623   -0.4627    1.0845 C   0  0  0  0  0  0  0  0  0  0  0  0
    2.6771    0.1655    0.5114 H   0  0  0  0  0  0  0  0  0  0  0  0
    0.1796   -0.4264   -1.9659 H   0  0  0  0  0  0  0  0  0  0  0  0
    0.9269   -1.5918   -0.6955 H   0  0  0  0  0  0  0  0  0  0  0  0
   -1.5202   -1.6921   -0.0897 H   0  0  0  0  0  0  0  0  0  0  0  0
   -2.1716    0.8527    0.5283 H   0  0  0  0  0  0  0  0  0  0  0  0
   -2.1210    0.6472   -1.2906 H   0  0  0  0  0  0  0  0  0  0  0  0
    0.5547   -1.3302    1.3217 H   0  0  0  0  0  0  0  0  0  0  0  0
   -0.5498    0.0625    1.9031 H   0  0  0  0  0  0  0  0  0  0  0  0
  1  2  2  0
  2  3  1  0
  3  4  1  0
  4  5  1  0
  5  6  1  0
  6  7  1  0
  5  8  1  0
  7  3  1  0
  8  3  1  0
  2  9  1  0
  4 10  1  0
  4 11  1  0
  5 12  1  0
  6 13  1  0
  6 14  1  0
  8 15  1  0
  8 16  1  0
M  END
