
     RDKit          3D

 17 19  0  0  0  0  0  0  0  0999 V2000
    3.0607   -0.7247    0.6913 O   0  0  0  0  0  0  0  0  0  0  0  0
    2.3231    0.0787    0.1473 C   0  0  0  0  0  0  0  0  0  0  0  0
    1.1299   -0.3728   -0.6609 C   0  0  0  0  0  0  0  0  0  0  0  0
    0.4870    0.7354   -1.1520 O   0  0  0  0  0  0  0  0  0  0  0  0
   -0.5177    1.1078   -0.2780 C   0  0  0  0  0  0  0  0  0  0  0  0
   -1.7963    0.3439   -0.6562 C   0  0  0  0  0  0  0  0  0  0  0  0
   -1.2719   -0.7870    0.2163 C   0  0  0  0  0  0  0  0  0  0  0  0
    0.1879   -1.0008    0.3586 C   0  0  0  0  0  0  0  0  0  0  0  0
   -0.4406    0.1905    0.9116 C   0  0  0  0  0  0  0  0  0  0  0  0
    2.5433    1.1356    0.2565 H   0  0  0  0  0  0  0  0  0  0  0  0
    1.4312   -1.1052   -1.4385 H   0  0  0  0  0  0  0  0  0  0  0  0
   -0.6509    2.1660   -0.0838 H   0  0  0  0  0  0  0  0  0  0  0  0
   -1.8793    0.1115   -1.7248 H   0  0  0  0  0  0  0  0  0  0  0  0
   -2.6660    0.8862   -0.2046 H   0  0  0  0  0  0  0  0  0  0  0  0
   -1.9503   -1.3998    0.7986 H   0  0  0  0  0  0  0  0  0  0  0  0
    0.5132   -1.8760    0.8969 H   0  0  0  0  0  0  0  0  0  0  0  0
   -0.5033    0.5108    1.9216 H   0  0  0  0  0  0  0  0  0  0  0  0
  1  2  2  0
  2  3  1  0
  3  4  1  0
  4  5  1  0
  5  6  1  0
  6  7  1  0
  7  8  1  0
  8  9  1  0
  8  3  1  0
  9  5  1  0
  9  7  1  0
  2 10  1  0
  3 11  1  0
  5 12  1  0
  6 13  1  0
  6 14  1  0
  7 15  1  0
  8 16  1  0
  9 17  1  0
M  END
