
     RDKit          3D

 17 18  0  0  0  0  0  0  0  0999 V2000
   -2.9788    0.4917    0.4453 O   0  0  0  0  0  0  0  0  0  0  0  0
   -2.0022   -0.2145    0.4059 C   0  0  0  0  0  0  0  0  0  0  0  0
   -0.6644    0.4407    0.6825 C   0  0  0  0  0  0  0  0  0  0  0  0
   -0.5182    1.4829   -0.3192 C   0  0  0  0  0  0  0  0  0  0  0  0
    0.3066    1.0897   -1.2631 C   0  0  0  0  0  0  0  0  0  0  0  0
    0.8074   -0.2768   -0.9877 C   0  0  0  0  0  0  0  0  0  0  0  0
    1.7840   -0.3327    0.1276 C   0  0  0  0  0  0  0  0  0  0  0  0
    0.3672   -0.5770    0.4392 C   0  0  0  0  0  0  0  0  0  0  0  0
    0.0002   -1.8888    0.7414 O   0  0  0  0  0  0  0  0  0  0  0  0
   -2.1071   -1.2584    0.1821 H   0  0  0  0  0  0  0  0  0  0  0  0
   -0.7054    0.8173    1.7308 H   0  0  0  0  0  0  0  0  0  0  0  0
   -1.0435    2.4756   -0.2745 H   0  0  0  0  0  0  0  0  0  0  0  0
    0.6017    1.6554   -2.1324 H   0  0  0  0  0  0  0  0  0  0  0  0
    0.7071   -1.0752   -1.7293 H   0  0  0  0  0  0  0  0  0  0  0  0
    2.2975    0.6085    0.4563 H   0  0  0  0  0  0  0  0  0  0  0  0
    2.4543   -1.1978    0.1369 H   0  0  0  0  0  0  0  0  0  0  0  0
    0.6937   -2.2406    1.3584 H   0  0  0  0  0  0  0  0  0  0  0  0
  1  2  2  0
  2  3  1  0
  3  4  1  0
  4  5  2  0
  5  6  1  0
  6  7  1  0
  7  8  1  0
  8  9  1  0
  8  3  1  0
  8  6  1  0
  2 10  1  0
  3 11  1  0
  4 12  1  0
  5 13  1  0
  6 14  1  0
  7 15  1  0
  7 16  1  0
  9 17  1  0
M  END
