
     RDKit          3D

 17 17  0  0  0  0  0  0  0  0999 V2000
    1.3188   -2.1882   -1.1336 O   0  0  0  0  0  0  0  0  0  0  0  0
    1.4044   -1.2571   -0.3462 C   0  0  0  0  0  0  0  0  0  0  0  0
    0.6428   -0.0403   -0.6228 C   0  0  0  0  0  0  0  0  0  0  0  0
    1.0278    1.1454    0.1913 C   0  0  0  0  0  0  0  0  0  0  0  0
    0.0357    1.2062    1.1936 O   0  0  0  0  0  0  0  0  0  0  0  0
   -1.1183    1.1365    0.3864 C   0  0  0  0  0  0  0  0  0  0  0  0
   -0.8409   -0.1749   -0.3566 C   0  0  0  0  0  0  0  0  0  0  0  0
   -1.1695   -1.2759    0.5458 C   0  0  0  0  0  0  0  0  0  0  0  0
   -0.6196   -1.3655    1.6196 O   0  0  0  0  0  0  0  0  0  0  0  0
    2.0518   -1.4157    0.5090 H   0  0  0  0  0  0  0  0  0  0  0  0
    0.7810    0.2184   -1.7073 H   0  0  0  0  0  0  0  0  0  0  0  0
    0.8725    2.0698   -0.4230 H   0  0  0  0  0  0  0  0  0  0  0  0
    2.0355    1.1024    0.6209 H   0  0  0  0  0  0  0  0  0  0  0  0
   -2.0358    1.1091    0.9620 H   0  0  0  0  0  0  0  0  0  0  0  0
   -1.0765    1.9256   -0.3944 H   0  0  0  0  0  0  0  0  0  0  0  0
   -1.4094   -0.1852   -1.3054 H   0  0  0  0  0  0  0  0  0  0  0  0
   -1.9002   -2.0105    0.2607 H   0  0  0  0  0  0  0  0  0  0  0  0
  1  2  2  0
  2  3  1  0
  3  4  1  0
  4  5  1  0
  5  6  1  0
  6  7  1  0
  7  8  1  0
  8  9  2  0
  7  3  1  0
  2 10  1  0
  3 11  1  0
  4 12  1  0
  4 13  1  0
  6 14  1  0
  6 15  1  0
  7 16  1  0
  8 17  1  0
M  END
