
     RDKit          3D

 19 20  0  0  0  0  0  0  0  0999 V2000
    2.7375   -0.0488    0.9143 O   0  0  0  0  0  0  0  0  0  0  0  0
    1.9205   -0.7323    0.3179 C   0  0  0  0  0  0  0  0  0  0  0  0
    0.9763   -0.0908   -0.5788 C   0  0  0  0  0  0  0  0  0  0  0  0
    0.1947    1.0520    0.0967 C   0  0  0  0  0  0  0  0  0  0  0  0
   -0.4406    0.3084    1.2285 C   0  0  0  0  0  0  0  0  0  0  0  0
   -0.9555   -0.9533    0.5173 C   0  0  0  0  0  0  0  0  0  0  0  0
   -0.2922   -0.9292   -0.8162 C   0  0  0  0  0  0  0  0  0  0  0  0
   -1.0108   -0.0026   -1.6072 O   0  0  0  0  0  0  0  0  0  0  0  0
   -0.8685    1.2319   -0.9744 C   0  0  0  0  0  0  0  0  0  0  0  0
    1.9390   -1.7863    0.4865 H   0  0  0  0  0  0  0  0  0  0  0  0
    1.3460    0.1975   -1.5604 H   0  0  0  0  0  0  0  0  0  0  0  0
    0.7794    1.9090    0.3252 H   0  0  0  0  0  0  0  0  0  0  0  0
   -1.2653    0.9024    1.6252 H   0  0  0  0  0  0  0  0  0  0  0  0
    0.3013   -0.0142    1.9775 H   0  0  0  0  0  0  0  0  0  0  0  0
   -2.0707   -0.8552    0.3673 H   0  0  0  0  0  0  0  0  0  0  0  0
   -0.7856   -1.8562    1.1113 H   0  0  0  0  0  0  0  0  0  0  0  0
   -0.1119   -1.8583   -1.3033 H   0  0  0  0  0  0  0  0  0  0  0  0
   -0.5820    2.0290   -1.6921 H   0  0  0  0  0  0  0  0  0  0  0  0
   -1.8117    1.4969   -0.4351 H   0  0  0  0  0  0  0  0  0  0  0  0
  1  2  2  0
  2  3  1  0
  3  4  1  0
  4  5  1  0
  5  6  1  0
  6  7  1  0
  7  8  1  0
  8  9  1  0
  7  3  1  0
  9  4  1  0
  2 10  1  0
  3 11  1  0
  4 12  1  0
  5 13  1  0
  5 14  1  0
  6 15  1  0
  6 16  1  0
  7 17  1  0
  9 18  1  0
  9 19  1  0
M  END
