
     RDKit          3D

 15 15  0  0  0  0  0  0  0  0999 V2000
   -2.6239   -0.0955   -0.1461 O   0  0  0  0  0  0  0  0  0  0  0  0
   -1.8359   -0.0530    0.7854 C   0  0  0  0  0  0  0  0  0  0  0  0
   -0.4010   -0.0257    0.4795 C   0  0  0  0  0  0  0  0  0  0  0  0
   -0.0226    1.2215   -0.3203 C   0  0  0  0  0  0  0  0  0  0  0  0
    1.4091    1.2870   -0.2404 O   0  0  0  0  0  0  0  0  0  0  0  0
    2.1337    0.0820   -0.2635 C   0  0  0  0  0  0  0  0  0  0  0  0
    3.3704    0.0535    0.0299 O   0  0  0  0  0  0  0  0  0  0  0  0
    1.4257   -1.0584   -0.6212 O   0  0  0  0  0  0  0  0  0  0  0  0
    0.0312   -1.2035   -0.3989 C   0  0  0  0  0  0  0  0  0  0  0  0
   -2.1718   -0.0353    1.8196 H   0  0  0  0  0  0  0  0  0  0  0  0
    0.2232   -0.1106    1.4056 H   0  0  0  0  0  0  0  0  0  0  0  0
   -0.4916    2.1287    0.0799 H   0  0  0  0  0  0  0  0  0  0  0  0
   -0.2732    1.0347   -1.3946 H   0  0  0  0  0  0  0  0  0  0  0  0
   -0.2257   -2.1264    0.1360 H   0  0  0  0  0  0  0  0  0  0  0  0
   -0.5477   -1.0990   -1.3509 H   0  0  0  0  0  0  0  0  0  0  0  0
  1  2  2  0
  2  3  1  0
  3  4  1  0
  4  5  1  0
  5  6  1  0
  6  7  2  0
  6  8  1  0
  8  9  1  0
  9  3  1  0
  2 10  1  0
  3 11  1  0
  4 12  1  0
  4 13  1  0
  9 14  1  0
  9 15  1  0
M  END
