
     RDKit          3D

 15 16  0  0  0  0  0  0  0  0999 V2000
   -1.5623   -0.7623   -1.7322 O   0  0  0  0  0  0  0  0  0  0  0  0
   -1.2611    0.2683   -1.1543 C   0  0  0  0  0  0  0  0  0  0  0  0
    0.0147    0.3695   -0.4470 C   0  0  0  0  0  0  0  0  0  0  0  0
    1.1758   -0.5202   -0.7985 C   0  0  0  0  0  0  0  0  0  0  0  0
    1.0796   -1.1171    0.5584 C   0  0  0  0  0  0  0  0  0  0  0  0
    1.6721   -2.0446    1.0830 O   0  0  0  0  0  0  0  0  0  0  0  0
    0.0296   -0.1773    0.9867 C   0  0  0  0  0  0  0  0  0  0  0  0
   -1.1286   -0.7230    1.4940 O   0  0  0  0  0  0  0  0  0  0  0  0
    0.1904    1.2590    0.7145 C   0  0  0  0  0  0  0  0  0  0  0  0
   -1.9324    1.1210   -1.1567 H   0  0  0  0  0  0  0  0  0  0  0  0
    2.0960    0.1048   -0.9619 H   0  0  0  0  0  0  0  0  0  0  0  0
    0.9750   -1.2015   -1.6213 H   0  0  0  0  0  0  0  0  0  0  0  0
   -1.9459   -0.2541    1.2615 H   0  0  0  0  0  0  0  0  0  0  0  0
    1.2119    1.7157    0.8370 H   0  0  0  0  0  0  0  0  0  0  0  0
   -0.6147    1.9618    0.9368 H   0  0  0  0  0  0  0  0  0  0  0  0
  1  2  2  0
  2  3  1  0
  3  4  1  0
  4  5  1  0
  5  6  2  0
  5  7  1  0
  7  8  1  0
  7  9  1  0
  7  3  1  0
  9  3  1  0
  2 10  1  0
  4 11  1  0
  4 12  1  0
  8 13  1  0
  9 14  1  0
  9 15  1  0
M  END
