
     RDKit          3D

 17 17  0  0  0  0  0  0  0  0999 V2000
   -1.3721   -1.7387    1.5536 O   0  0  0  0  0  0  0  0  0  0  0  0
   -1.7119   -1.2635    0.4992 C   0  0  0  0  0  0  0  0  0  0  0  0
   -0.8274   -0.2753   -0.1603 C   0  0  0  0  0  0  0  0  0  0  0  0
   -1.3566    0.1795   -1.3659 O   0  0  0  0  0  0  0  0  0  0  0  0
   -0.5816    0.8955    0.7065 C   0  0  0  0  0  0  0  0  0  0  0  0
    0.6415    1.3400    0.4856 C   0  0  0  0  0  0  0  0  0  0  0  0
    1.3300    0.5073   -0.5484 C   0  0  0  0  0  0  0  0  0  0  0  0
    2.6442    0.2882   -0.1778 O   0  0  0  0  0  0  0  0  0  0  0  0
    0.5495   -0.8169   -0.4198 C   0  0  0  0  0  0  0  0  0  0  0  0
   -2.6246   -1.5370    0.0379 H   0  0  0  0  0  0  0  0  0  0  0  0
   -1.8680    1.0103   -1.2093 H   0  0  0  0  0  0  0  0  0  0  0  0
   -1.3220    1.3075    1.4141 H   0  0  0  0  0  0  0  0  0  0  0  0
    1.0637    2.1952    0.9989 H   0  0  0  0  0  0  0  0  0  0  0  0
    1.2336    0.9190   -1.5627 H   0  0  0  0  0  0  0  0  0  0  0  0
    2.6317   -0.1963    0.6973 H   0  0  0  0  0  0  0  0  0  0  0  0
    0.9559   -1.4202    0.4122 H   0  0  0  0  0  0  0  0  0  0  0  0
    0.6138   -1.3946   -1.3611 H   0  0  0  0  0  0  0  0  0  0  0  0
  1  2  2  0
  2  3  1  0
  3  4  1  0
  3  5  1  0
  5  6  2  0
  6  7  1  0
  7  8  1  0
  7  9  1  0
  9  3  1  0
  2 10  1  0
  4 11  1  0
  5 12  1  0
  6 13  1  0
  7 14  1  0
  8 15  1  0
  9 16  1  0
  9 17  1  0
M  END
