
     RDKit          3D

 17 19  0  0  0  0  0  0  0  0999 V2000
    2.5638   -1.7216    0.1604 O   0  0  0  0  0  0  0  0  0  0  0  0
    2.1671   -0.6646   -0.2963 C   0  0  0  0  0  0  0  0  0  0  0  0
    0.8130   -0.2202    0.0260 C   0  0  0  0  0  0  0  0  0  0  0  0
    0.5322    1.1347    0.6267 C   0  0  0  0  0  0  0  0  0  0  0  0
   -0.7945    1.1195   -0.1011 C   0  0  0  0  0  0  0  0  0  0  0  0
   -1.8067    0.3208    0.6244 C   0  0  0  0  0  0  0  0  0  0  0  0
   -1.5425   -0.9776    0.5359 C   0  0  0  0  0  0  0  0  0  0  0  0
   -0.3008   -1.1539   -0.2758 C   0  0  0  0  0  0  0  0  0  0  0  0
   -0.1981    0.0935   -1.0168 C   0  0  0  0  0  0  0  0  0  0  0  0
    2.8475   -0.1077   -0.9222 H   0  0  0  0  0  0  0  0  0  0  0  0
    1.1807    1.9141    0.1477 H   0  0  0  0  0  0  0  0  0  0  0  0
    0.4924    1.1771    1.7138 H   0  0  0  0  0  0  0  0  0  0  0  0
   -1.1185    2.0565   -0.5435 H   0  0  0  0  0  0  0  0  0  0  0  0
   -2.6816    0.6856    1.1808 H   0  0  0  0  0  0  0  0  0  0  0  0
   -2.0887   -1.8115    0.9540 H   0  0  0  0  0  0  0  0  0  0  0  0
   -0.0701   -2.0902   -0.7624 H   0  0  0  0  0  0  0  0  0  0  0  0
    0.0046    0.2455   -2.0515 H   0  0  0  0  0  0  0  0  0  0  0  0
  1  2  2  0
  2  3  1  0
  3  4  1  0
  4  5  1  0
  5  6  1  0
  6  7  2  0
  7  8  1  0
  8  9  1  0
  8  3  1  0
  9  3  1  0
  9  5  1  0
  2 10  1  0
  4 11  1  0
  4 12  1  0
  5 13  1  0
  6 14  1  0
  7 15  1  0
  8 16  1  0
  9 17  1  0
M  END
