
     RDKit          3D

 18 19  0  0  0  0  0  0  0  0999 V2000
    2.1740    0.3740    1.6361 O   0  0  0  0  0  0  0  0  0  0  0  0
    2.3199    0.3539    0.4390 C   0  0  0  0  0  0  0  0  0  0  0  0
    1.3050   -0.1969   -0.4791 C   0  0  0  0  0  0  0  0  0  0  0  0
    0.6154   -1.5140   -0.0502 C   0  0  0  0  0  0  0  0  0  0  0  0
   -0.1159   -0.2711   -0.1076 C   0  0  0  0  0  0  0  0  0  0  0  0
   -0.7058    0.4395    1.0546 C   0  0  0  0  0  0  0  0  0  0  0  0
   -1.8660    0.8621    0.1595 C   0  0  0  0  0  0  0  0  0  0  0  0
   -1.2383    0.0685   -0.9902 C   0  0  0  0  0  0  0  0  0  0  0  0
    3.2328    0.7565    0.0235 H   0  0  0  0  0  0  0  0  0  0  0  0
    1.5215   -0.1748   -1.5608 H   0  0  0  0  0  0  0  0  0  0  0  0
    0.5559   -2.3263   -0.7769 H   0  0  0  0  0  0  0  0  0  0  0  0
    0.9048   -1.8840    0.9762 H   0  0  0  0  0  0  0  0  0  0  0  0
   -1.0240   -0.1937    1.9163 H   0  0  0  0  0  0  0  0  0  0  0  0
   -0.0759    1.2542    1.4238 H   0  0  0  0  0  0  0  0  0  0  0  0
   -1.8624    1.9434    0.0178 H   0  0  0  0  0  0  0  0  0  0  0  0
   -2.8389    0.4520    0.5036 H   0  0  0  0  0  0  0  0  0  0  0  0
   -1.9239   -0.7205   -1.3149 H   0  0  0  0  0  0  0  0  0  0  0  0
   -0.9782    0.7774   -1.8231 H   0  0  0  0  0  0  0  0  0  0  0  0
  1  2  2  0
  2  3  1  0
  3  4  1  0
  4  5  1  0
  5  6  1  0
  6  7  1  0
  7  8  1  0
  5  3  1  0
  8  5  1  0
  2  9  1  0
  3 10  1  0
  4 11  1  0
  4 12  1  0
  6 13  1  0
  6 14  1  0
  7 15  1  0
  7 16  1  0
  8 17  1  0
  8 18  1  0
M  END
