
     RDKit          3D

 19 20  0  0  0  0  0  0  0  0999 V2000
    2.8857   -0.2783    1.4069 O   0  0  0  0  0  0  0  0  0  0  0  0
    2.1842   -0.8954    0.6075 C   0  0  0  0  0  0  0  0  0  0  0  0
    1.2041   -0.1573   -0.2396 C   0  0  0  0  0  0  0  0  0  0  0  0
    0.5312   -1.0125   -1.0509 O   0  0  0  0  0  0  0  0  0  0  0  0
   -0.7035   -1.4223   -0.6761 C   0  0  0  0  0  0  0  0  0  0  0  0
   -1.6637   -0.3067   -0.3390 C   0  0  0  0  0  0  0  0  0  0  0  0
   -1.0283    0.7509    0.4803 C   0  0  0  0  0  0  0  0  0  0  0  0
   -0.3103    1.8910   -0.1319 C   0  0  0  0  0  0  0  0  0  0  0  0
    0.4107    0.7451    0.6136 C   0  0  0  0  0  0  0  0  0  0  0  0
    2.3330   -1.9601    0.5753 H   0  0  0  0  0  0  0  0  0  0  0  0
    1.8345    0.4944   -0.9181 H   0  0  0  0  0  0  0  0  0  0  0  0
   -0.7097   -2.1799    0.1481 H   0  0  0  0  0  0  0  0  0  0  0  0
   -1.1589   -1.9529   -1.5553 H   0  0  0  0  0  0  0  0  0  0  0  0
   -2.5383   -0.7885    0.1735 H   0  0  0  0  0  0  0  0  0  0  0  0
   -2.0861    0.1760   -1.2593 H   0  0  0  0  0  0  0  0  0  0  0  0
   -1.6175    1.0261    1.4039 H   0  0  0  0  0  0  0  0  0  0  0  0
   -0.1352    1.9647   -1.2210 H   0  0  0  0  0  0  0  0  0  0  0  0
   -0.2947    2.8697    0.3824 H   0  0  0  0  0  0  0  0  0  0  0  0
    0.8626    1.0361    1.5996 H   0  0  0  0  0  0  0  0  0  0  0  0
  1  2  2  0
  2  3  1  0
  3  4  1  0
  4  5  1  0
  5  6  1  0
  6  7  1  0
  7  8  1  0
  8  9  1  0
  9  3  1  0
  9  7  1  0
  2 10  1  0
  3 11  1  0
  5 12  1  0
  5 13  1  0
  6 14  1  0
  6 15  1  0
  7 16  1  0
  8 17  1  0
  8 18  1  0
  9 19  1  0
M  END
