
     RDKit          3D

 15 14  0  0  0  0  0  0  0  0999 V2000
   -3.5464    1.1358   -0.6555 O   0  0  0  0  0  0  0  0  0  0  0  0
   -3.7556   -0.0707   -0.3131 C   0  0  0  0  0  0  0  0  0  0  0  0
   -2.6011   -1.0476   -0.2974 C   0  0  0  0  0  0  0  0  0  0  0  0
   -1.5130   -0.6687   -0.2621 C   0  0  0  0  0  0  0  0  0  0  0  0
   -0.0958   -0.1485   -0.2077 C   0  0  0  0  0  0  0  0  0  0  0  0
    1.1719    0.2932   -0.1656 C   0  0  0  0  0  0  0  0  0  0  0  0
    2.0467    0.6120   -0.1463 C   0  0  0  0  0  0  0  0  0  0  0  0
    3.6244    1.1577   -0.1087 C   0  0  0  0  0  0  0  0  0  0  0  0
    4.2785    0.0273    0.4333 O   0  0  0  0  0  0  0  0  0  0  0  0
   -4.7471   -0.3063   -0.0598 H   0  0  0  0  0  0  0  0  0  0  0  0
   -2.8600   -1.6356    0.7635 H   0  0  0  0  0  0  0  0  0  0  0  0
   -2.9768   -1.8327   -1.0939 H   0  0  0  0  0  0  0  0  0  0  0  0
    3.5161    1.8241    0.8112 H   0  0  0  0  0  0  0  0  0  0  0  0
    3.7718    1.4672   -1.0197 H   0  0  0  0  0  0  0  0  0  0  0  0
    3.6865   -0.8072    0.3328 H   0  0  0  0  0  0  0  0  0  0  0  0
  1  2  2  0
  2  3  1  0
  3  4  1  0
  4  5  3  0
  5  6  1  0
  6  7  3  0
  7  8  1  0
  8  9  1  0
  2 10  1  0
  3 11  1  0
  3 12  1  0
  8 13  1  0
  8 14  1  0
  9 15  1  0
M  END
