
     RDKit          3D

 17 18  0  0  0  0  0  0  0  0999 V2000
    1.3168    0.2965   -2.3941 O   0  0  0  0  0  0  0  0  0  0  0  0
    1.7297   -0.2792   -1.4063 C   0  0  0  0  0  0  0  0  0  0  0  0
    1.1580    0.0106   -0.0954 C   0  0  0  0  0  0  0  0  0  0  0  0
    1.7659   -0.7551    0.9272 O   0  0  0  0  0  0  0  0  0  0  0  0
    0.5840   -0.6704    1.6190 C   0  0  0  0  0  0  0  0  0  0  0  0
   -0.1342   -0.6451    0.2631 C   0  0  0  0  0  0  0  0  0  0  0  0
   -1.3435    0.2103    0.3632 C   0  0  0  0  0  0  0  0  0  0  0  0
   -1.8227    0.9985   -0.8359 C   0  0  0  0  0  0  0  0  0  0  0  0
   -1.0671    1.6032    0.1829 O   0  0  0  0  0  0  0  0  0  0  0  0
    2.5217   -0.9978   -1.5477 H   0  0  0  0  0  0  0  0  0  0  0  0
    1.1367    1.0834    0.2094 H   0  0  0  0  0  0  0  0  0  0  0  0
    0.4937    0.3393    2.0911 H   0  0  0  0  0  0  0  0  0  0  0  0
    0.2828   -1.5141    2.2333 H   0  0  0  0  0  0  0  0  0  0  0  0
   -0.2631   -1.6863   -0.0719 H   0  0  0  0  0  0  0  0  0  0  0  0
   -2.1409   -0.0094    1.1063 H   0  0  0  0  0  0  0  0  0  0  0  0
   -2.8873    1.3041   -0.8686 H   0  0  0  0  0  0  0  0  0  0  0  0
   -1.3303    0.7114   -1.7755 H   0  0  0  0  0  0  0  0  0  0  0  0
  1  2  2  0
  2  3  1  0
  3  4  1  0
  4  5  1  0
  5  6  1  0
  6  7  1  0
  7  8  1  0
  8  9  1  0
  6  3  1  0
  9  7  1  0
  2 10  1  0
  3 11  1  0
  5 12  1  0
  5 13  1  0
  6 14  1  0
  7 15  1  0
  8 16  1  0
  8 17  1  0
M  END
