
     RDKit          3D

 14 13  0  0  0  0  0  0  0  0999 V2000
   -1.8627    0.8506   -1.1100 O   0  0  0  0  0  0  0  0  0  0  0  0
   -2.3905    0.1825   -0.2421 C   0  0  0  0  0  0  0  0  0  0  0  0
   -1.5230   -0.3223    0.8530 C   0  0  0  0  0  0  0  0  0  0  0  0
   -0.1832    0.0795    0.6858 O   0  0  0  0  0  0  0  0  0  0  0  0
    0.5866   -0.2468   -0.4049 C   0  0  0  0  0  0  0  0  0  0  0  0
    0.1053   -0.9402   -1.3250 O   0  0  0  0  0  0  0  0  0  0  0  0
    1.9737    0.2127   -0.5007 C   0  0  0  0  0  0  0  0  0  0  0  0
    2.3986    0.9642    0.5603 O   0  0  0  0  0  0  0  0  0  0  0  0
   -3.4468   -0.0400   -0.2586 H   0  0  0  0  0  0  0  0  0  0  0  0
   -1.5621   -1.4474    0.8504 H   0  0  0  0  0  0  0  0  0  0  0  0
   -1.9111   -0.0169    1.8446 H   0  0  0  0  0  0  0  0  0  0  0  0
    2.6595   -0.6682   -0.6528 H   0  0  0  0  0  0  0  0  0  0  0  0
    2.0627    0.8520   -1.4213 H   0  0  0  0  0  0  0  0  0  0  0  0
    3.0930    0.5404    1.1214 H   0  0  0  0  0  0  0  0  0  0  0  0
  1  2  2  0
  2  3  1  0
  3  4  1  0
  4  5  1  0
  5  6  2  0
  5  7  1  0
  7  8  1  0
  2  9  1  0
  3 10  1  0
  3 11  1  0
  7 12  1  0
  7 13  1  0
  8 14  1  0
M  END
