
     RDKit          3D

  8  7  0  0  0  0  0  0  0  0999 V2000
   -2.3176    1.5142   -0.5684 O   0  0  0  0  0  0  0  0  0  0  0  0
   -1.9438    0.3277   -0.3006 C   0  0  0  0  0  0  0  0  0  0  0  0
   -0.5706    0.0925    0.0472 C   0  0  0  0  0  0  0  0  0  0  0  0
    0.5797   -0.1183    0.3522 C   0  0  0  0  0  0  0  0  0  0  0  0
    1.9548   -0.3572    0.6944 C   0  0  0  0  0  0  0  0  0  0  0  0
    2.5246   -1.4255    0.3502 O   0  0  0  0  0  0  0  0  0  0  0  0
   -2.6932   -0.4484   -0.3508 H   0  0  0  0  0  0  0  0  0  0  0  0
    2.4662    0.4151    1.2535 H   0  0  0  0  0  0  0  0  0  0  0  0
  1  2  2  0
  2  3  1  0
  3  4  3  0
  4  5  1  0
  5  6  2  0
  2  7  1  0
  5  8  1  0
M  END
