
     RDKit          3D

 14 14  0  0  0  0  0  0  0  0999 V2000
   -2.0982   -0.7636   -0.6738 O   0  0  0  0  0  0  0  0  0  0  0  0
   -1.7844    0.1392    0.0584 C   0  0  0  0  0  0  0  0  0  0  0  0
   -0.3572    0.3272    0.3810 C   0  0  0  0  0  0  0  0  0  0  0  0
   -0.1286    1.4007    1.2332 O   0  0  0  0  0  0  0  0  0  0  0  0
    0.4395    0.5151   -0.9093 C   0  0  0  0  0  0  0  0  0  0  0  0
    1.2200   -0.7345   -0.5575 C   0  0  0  0  0  0  0  0  0  0  0  0
    0.4067   -0.8921    0.6737 C   0  0  0  0  0  0  0  0  0  0  0  0
    0.4013   -1.7194    1.5576 O   0  0  0  0  0  0  0  0  0  0  0  0
   -2.5214    0.7941    0.4691 H   0  0  0  0  0  0  0  0  0  0  0  0
    0.1181    1.1190    2.1404 H   0  0  0  0  0  0  0  0  0  0  0  0
   -0.1636    0.4365   -1.8361 H   0  0  0  0  0  0  0  0  0  0  0  0
    1.0676    1.4345   -0.9233 H   0  0  0  0  0  0  0  0  0  0  0  0
    2.2757   -0.5301   -0.3080 H   0  0  0  0  0  0  0  0  0  0  0  0
    1.1245   -1.5266   -1.3054 H   0  0  0  0  0  0  0  0  0  0  0  0
  1  2  2  0
  2  3  1  0
  3  4  1  0
  3  5  1  0
  5  6  1  0
  6  7  1  0
  7  8  2  0
  7  3  1  0
  2  9  1  0
  4 10  1  0
  5 11  1  0
  5 12  1  0
  6 13  1  0
  6 14  1  0
M  END
