
     RDKit          3D

 19 20  0  0  0  0  0  0  0  0999 V2000
    2.4815    1.2662    0.3452 O   0  0  0  0  0  0  0  0  0  0  0  0
    1.8466    0.3702    0.8851 C   0  0  0  0  0  0  0  0  0  0  0  0
    1.3539   -0.7676    0.1647 C   0  0  0  0  0  0  0  0  0  0  0  0
    0.0657   -0.7570   -0.5290 C   0  0  0  0  0  0  0  0  0  0  0  0
   -0.1023    0.2821   -1.6228 C   0  0  0  0  0  0  0  0  0  0  0  0
   -1.3634    0.8632   -1.2932 O   0  0  0  0  0  0  0  0  0  0  0  0
   -1.2124    0.9810    0.0573 C   0  0  0  0  0  0  0  0  0  0  0  0
   -1.6378    0.2979    1.2080 C   0  0  0  0  0  0  0  0  0  0  0  0
   -1.1742   -0.5973    0.2267 C   0  0  0  0  0  0  0  0  0  0  0  0
    1.6821    0.4969    1.9500 H   0  0  0  0  0  0  0  0  0  0  0  0
    1.3392   -1.6738    0.8441 H   0  0  0  0  0  0  0  0  0  0  0  0
    2.1427   -1.0572   -0.5973 H   0  0  0  0  0  0  0  0  0  0  0  0
    0.0583   -1.7459   -1.0974 H   0  0  0  0  0  0  0  0  0  0  0  0
   -0.1076   -0.1180   -2.6331 H   0  0  0  0  0  0  0  0  0  0  0  0
    0.6662    1.0672   -1.4698 H   0  0  0  0  0  0  0  0  0  0  0  0
   -0.2255    1.5169    0.2118 H   0  0  0  0  0  0  0  0  0  0  0  0
   -1.0494    0.3275    2.1706 H   0  0  0  0  0  0  0  0  0  0  0  0
   -2.7280    0.3733    1.4872 H   0  0  0  0  0  0  0  0  0  0  0  0
   -2.0354   -1.1258   -0.3080 H   0  0  0  0  0  0  0  0  0  0  0  0
  1  2  2  0
  2  3  1  0
  3  4  1  0
  4  5  1  0
  5  6  1  0
  6  7  1  0
  7  8  1  0
  8  9  1  0
  9  4  1  0
  9  7  1  0
  2 10  1  0
  3 11  1  0
  3 12  1  0
  4 13  1  0
  5 14  1  0
  5 15  1  0
  7 16  1  0
  8 17  1  0
  8 18  1  0
  9 19  1  0
M  END
