
     RDKit          3D

 13 14  0  0  0  0  0  0  0  0999 V2000
    2.7704    0.9379   -0.5750 O   0  0  0  0  0  0  0  0  0  0  0  0
    2.1298   -0.0358   -0.1172 C   0  0  0  0  0  0  0  0  0  0  0  0
    0.6552   -0.0024    0.0831 C   0  0  0  0  0  0  0  0  0  0  0  0
   -0.1231   -0.9647    0.5585 C   0  0  0  0  0  0  0  0  0  0  0  0
   -1.4712   -0.4764    0.5836 C   0  0  0  0  0  0  0  0  0  0  0  0
   -2.4761   -0.2456   -0.1976 O   0  0  0  0  0  0  0  0  0  0  0  0
   -1.4297    0.3080   -0.7340 C   0  0  0  0  0  0  0  0  0  0  0  0
   -0.2700    1.0948   -0.2747 C   0  0  0  0  0  0  0  0  0  0  0  0
   -0.0121    2.2962   -0.1680 O   0  0  0  0  0  0  0  0  0  0  0  0
    2.6935   -0.9135    0.1308 H   0  0  0  0  0  0  0  0  0  0  0  0
    0.2892   -1.9553    0.8624 H   0  0  0  0  0  0  0  0  0  0  0  0
   -1.5910    0.1803    1.5327 H   0  0  0  0  0  0  0  0  0  0  0  0
   -1.1649   -0.2235   -1.6847 H   0  0  0  0  0  0  0  0  0  0  0  0
  1  2  2  0
  2  3  1  0
  3  4  2  0
  4  5  1  0
  5  6  1  0
  6  7  1  0
  7  8  1  0
  8  9  2  0
  8  3  1  0
  7  5  1  0
  2 10  1  0
  4 11  1  0
  5 12  1  0
  7 13  1  0
M  END
