
     RDKit          3D

 19 20  0  0  0  0  0  0  0  0999 V2000
    2.1479    0.0014    1.7249 O   0  0  0  0  0  0  0  0  0  0  0  0
    2.4746   -0.0448    0.5692 C   0  0  0  0  0  0  0  0  0  0  0  0
    1.4332    0.1626   -0.4764 C   0  0  0  0  0  0  0  0  0  0  0  0
    0.0822    0.4075    0.0939 C   0  0  0  0  0  0  0  0  0  0  0  0
    0.1106    1.5651    0.9021 O   0  0  0  0  0  0  0  0  0  0  0  0
   -0.6852   -0.7242    0.6721 C   0  0  0  0  0  0  0  0  0  0  0  0
   -0.9678   -1.1900   -0.6986 C   0  0  0  0  0  0  0  0  0  0  0  0
   -1.0877    0.3072   -0.8088 C   0  0  0  0  0  0  0  0  0  0  0  0
   -1.9063    0.1728    0.4448 C   0  0  0  0  0  0  0  0  0  0  0  0
    3.4902   -0.2300    0.2370 H   0  0  0  0  0  0  0  0  0  0  0  0
    1.7851    1.0727   -1.0470 H   0  0  0  0  0  0  0  0  0  0  0  0
    1.4243   -0.6424   -1.2178 H   0  0  0  0  0  0  0  0  0  0  0  0
    0.5414    2.2901    0.3801 H   0  0  0  0  0  0  0  0  0  0  0  0
   -0.5151   -1.2391    1.5112 H   0  0  0  0  0  0  0  0  0  0  0  0
   -0.2269   -1.7040   -1.2926 H   0  0  0  0  0  0  0  0  0  0  0  0
   -2.0059   -1.6184   -0.7420 H   0  0  0  0  0  0  0  0  0  0  0  0
   -1.3083    0.8314   -1.6299 H   0  0  0  0  0  0  0  0  0  0  0  0
   -2.8012   -0.4524    0.2812 H   0  0  0  0  0  0  0  0  0  0  0  0
   -1.9852    1.0346    1.0965 H   0  0  0  0  0  0  0  0  0  0  0  0
  1  2  2  0
  2  3  1  0
  3  4  1  0
  4  5  1  0
  4  6  1  0
  6  7  1  0
  7  8  1  0
  8  9  1  0
  8  4  1  0
  9  6  1  0
  2 10  1  0
  3 11  1  0
  3 12  1  0
  5 13  1  0
  6 14  1  0
  7 15  1  0
  7 16  1  0
  8 17  1  0
  9 18  1  0
  9 19  1  0
M  END
