
     RDKit          3D

 17 18  0  0  0  0  0  0  0  0999 V2000
   -2.8065   -1.3508   -0.9425 O   0  0  0  0  0  0  0  0  0  0  0  0
   -2.2039   -0.6314   -0.1781 C   0  0  0  0  0  0  0  0  0  0  0  0
   -0.8541   -0.1435   -0.5520 C   0  0  0  0  0  0  0  0  0  0  0  0
   -0.5141    1.2555   -0.0993 C   0  0  0  0  0  0  0  0  0  0  0  0
    0.5354    1.2544    0.9290 C   0  0  0  0  0  0  0  0  0  0  0  0
    1.5136    0.3448    0.9400 C   0  0  0  0  0  0  0  0  0  0  0  0
    1.5601   -0.7006   -0.1044 C   0  0  0  0  0  0  0  0  0  0  0  0
    0.2164   -1.0784   -0.6197 C   0  0  0  0  0  0  0  0  0  0  0  0
   -0.3028   -0.5128   -1.7607 O   0  0  0  0  0  0  0  0  0  0  0  0
   -2.6587   -0.3606    0.7563 H   0  0  0  0  0  0  0  0  0  0  0  0
   -0.1448    1.8503   -0.9583 H   0  0  0  0  0  0  0  0  0  0  0  0
   -1.4003    1.7980    0.2886 H   0  0  0  0  0  0  0  0  0  0  0  0
    0.5190    2.0101    1.7001 H   0  0  0  0  0  0  0  0  0  0  0  0
    2.2477    0.4164    1.7347 H   0  0  0  0  0  0  0  0  0  0  0  0
    2.1044   -1.5776    0.3542 H   0  0  0  0  0  0  0  0  0  0  0  0
    2.2119   -0.4018   -0.9694 H   0  0  0  0  0  0  0  0  0  0  0  0
   -0.0232   -2.1719   -0.5183 H   0  0  0  0  0  0  0  0  0  0  0  0
  1  2  2  0
  2  3  1  0
  3  4  1  0
  4  5  1  0
  5  6  2  0
  6  7  1  0
  7  8  1  0
  8  9  1  0
  8  3  1  0
  9  3  1  0
  2 10  1  0
  4 11  1  0
  4 12  1  0
  5 13  1  0
  6 14  1  0
  7 15  1  0
  7 16  1  0
  8 17  1  0
M  END
