
     RDKit          3D

 19 19  0  0  0  0  0  0  0  0999 V2000
    3.7600    0.6439    0.3095 O   0  0  0  0  0  0  0  0  0  0  0  0
    2.6649    0.9062    0.7661 C   0  0  0  0  0  0  0  0  0  0  0  0
    1.5819   -0.0834    0.7389 C   0  0  0  0  0  0  0  0  0  0  0  0
    2.0184   -1.2658    0.1436 O   0  0  0  0  0  0  0  0  0  0  0  0
    0.3820    0.4456   -0.0519 C   0  0  0  0  0  0  0  0  0  0  0  0
   -0.7299   -0.5677   -0.0812 C   0  0  0  0  0  0  0  0  0  0  0  0
   -1.9078   -0.0560   -0.8540 C   0  0  0  0  0  0  0  0  0  0  0  0
   -2.6833   -0.2524    0.4190 C   0  0  0  0  0  0  0  0  0  0  0  0
   -1.5077   -0.6425    1.0566 O   0  0  0  0  0  0  0  0  0  0  0  0
    2.5076    1.8745    1.1885 H   0  0  0  0  0  0  0  0  0  0  0  0
    1.2429   -0.3461    1.7610 H   0  0  0  0  0  0  0  0  0  0  0  0
    2.7189   -1.0917   -0.5221 H   0  0  0  0  0  0  0  0  0  0  0  0
    0.7459    0.6265   -1.0848 H   0  0  0  0  0  0  0  0  0  0  0  0
    0.1036    1.3955    0.4033 H   0  0  0  0  0  0  0  0  0  0  0  0
   -0.3610   -1.5725   -0.3666 H   0  0  0  0  0  0  0  0  0  0  0  0
   -2.2104   -0.6851   -1.7122 H   0  0  0  0  0  0  0  0  0  0  0  0
   -1.8410    1.0004   -1.1105 H   0  0  0  0  0  0  0  0  0  0  0  0
   -3.0413    0.7010    0.8817 H   0  0  0  0  0  0  0  0  0  0  0  0
   -3.4437   -1.0304    0.2879 H   0  0  0  0  0  0  0  0  0  0  0  0
  1  2  2  0
  2  3  1  0
  3  4  1  0
  3  5  1  0
  5  6  1  0
  6  7  1  0
  7  8  1  0
  8  9  1  0
  9  6  1  0
  2 10  1  0
  3 11  1  0
  4 12  1  0
  5 13  1  0
  5 14  1  0
  6 15  1  0
  7 16  1  0
  7 17  1  0
  8 18  1  0
  8 19  1  0
M  END
