
     RDKit          3D

 17 19  0  0  0  0  0  0  0  0999 V2000
    2.9899    0.3729    1.1771 O   0  0  0  0  0  0  0  0  0  0  0  0
    2.1360    0.7382    0.3871 C   0  0  0  0  0  0  0  0  0  0  0  0
    1.0310   -0.1660    0.0697 C   0  0  0  0  0  0  0  0  0  0  0  0
    1.0117   -1.4088    0.6925 O   0  0  0  0  0  0  0  0  0  0  0  0
    0.0613   -0.5558    1.2032 C   0  0  0  0  0  0  0  0  0  0  0  0
   -1.2338   -0.3942    0.4741 C   0  0  0  0  0  0  0  0  0  0  0  0
   -1.0569    0.9138   -0.2859 C   0  0  0  0  0  0  0  0  0  0  0  0
    0.0469    0.1275   -1.0059 C   0  0  0  0  0  0  0  0  0  0  0  0
   -0.9201   -1.0475   -0.8730 C   0  0  0  0  0  0  0  0  0  0  0  0
    2.2659    1.7300   -0.0291 H   0  0  0  0  0  0  0  0  0  0  0  0
    0.2435   -0.0577    2.1692 H   0  0  0  0  0  0  0  0  0  0  0  0
   -2.1607   -0.6019    0.9325 H   0  0  0  0  0  0  0  0  0  0  0  0
   -0.6066    1.7307    0.3009 H   0  0  0  0  0  0  0  0  0  0  0  0
   -1.8793    1.1754   -0.9657 H   0  0  0  0  0  0  0  0  0  0  0  0
    0.3354    0.4418   -1.9707 H   0  0  0  0  0  0  0  0  0  0  0  0
   -0.4484   -2.0196   -0.7572 H   0  0  0  0  0  0  0  0  0  0  0  0
   -1.8158   -0.9790   -1.5188 H   0  0  0  0  0  0  0  0  0  0  0  0
  1  2  2  0
  2  3  1  0
  3  4  1  0
  4  5  1  0
  5  6  1  0
  6  7  1  0
  7  8  1  0
  8  9  1  0
  5  3  1  0
  9  6  1  0
  8  3  1  0
  2 10  1  0
  5 11  1  0
  6 12  1  0
  7 13  1  0
  7 14  1  0
  8 15  1  0
  9 16  1  0
  9 17  1  0
M  END
