
     RDKit          3D

 17 17  0  0  0  0  0  0  0  0999 V2000
    3.1239   -0.8090    0.9900 O   0  0  0  0  0  0  0  0  0  0  0  0
    2.5153    0.1952    0.7324 C   0  0  0  0  0  0  0  0  0  0  0  0
    1.6131    0.2111   -0.4457 C   0  0  0  0  0  0  0  0  0  0  0  0
    1.6009   -1.0001   -1.1160 O   0  0  0  0  0  0  0  0  0  0  0  0
    0.2552    0.5706    0.0459 C   0  0  0  0  0  0  0  0  0  0  0  0
    0.1584    1.6211    0.6505 O   0  0  0  0  0  0  0  0  0  0  0  0
   -0.8743   -0.3371   -0.2157 C   0  0  0  0  0  0  0  0  0  0  0  0
   -2.1897    0.4047   -0.5846 C   0  0  0  0  0  0  0  0  0  0  0  0
   -2.0665   -0.3614    0.6634 C   0  0  0  0  0  0  0  0  0  0  0  0
    2.6000    1.0896    1.3271 H   0  0  0  0  0  0  0  0  0  0  0  0
    1.9050    1.0013   -1.1703 H   0  0  0  0  0  0  0  0  0  0  0  0
    1.5127   -1.7564   -0.4684 H   0  0  0  0  0  0  0  0  0  0  0  0
   -0.6676   -1.2607   -0.7735 H   0  0  0  0  0  0  0  0  0  0  0  0
   -2.1918    1.4982   -0.5006 H   0  0  0  0  0  0  0  0  0  0  0  0
   -2.6761    0.0188   -1.4827 H   0  0  0  0  0  0  0  0  0  0  0  0
   -2.6456   -1.3051    0.7282 H   0  0  0  0  0  0  0  0  0  0  0  0
   -1.9727    0.2192    1.6200 H   0  0  0  0  0  0  0  0  0  0  0  0
  1  2  2  0
  2  3  1  0
  3  4  1  0
  3  5  1  0
  5  6  2  0
  5  7  1  0
  7  8  1  0
  8  9  1  0
  9  7  1  0
  2 10  1  0
  3 11  1  0
  4 12  1  0
  7 13  1  0
  8 14  1  0
  8 15  1  0
  9 16  1  0
  9 17  1  0
M  END
