
     RDKit          3D

 16 16  0  0  0  0  0  0  0  0999 V2000
    2.4263    0.8007    1.5618 O   0  0  0  0  0  0  0  0  0  0  0  0
    2.4543    0.0874    0.5899 C   0  0  0  0  0  0  0  0  0  0  0  0
    1.4140    0.2421   -0.4451 C   0  0  0  0  0  0  0  0  0  0  0  0
    0.2844   -0.7730   -0.3647 C   0  0  0  0  0  0  0  0  0  0  0  0
   -0.5014    0.3708    0.2810 C   0  0  0  0  0  0  0  0  0  0  0  0
   -1.8530    0.4881   -0.3970 C   0  0  0  0  0  0  0  0  0  0  0  0
   -2.7422   -0.4191    0.1633 O   0  0  0  0  0  0  0  0  0  0  0  0
    0.4685    1.2275   -0.1942 O   0  0  0  0  0  0  0  0  0  0  0  0
    3.2210   -0.6503    0.4732 H   0  0  0  0  0  0  0  0  0  0  0  0
    1.8730    0.2513   -1.4464 H   0  0  0  0  0  0  0  0  0  0  0  0
    0.4307   -1.5657    0.3667 H   0  0  0  0  0  0  0  0  0  0  0  0
   -0.0806   -1.0488   -1.3640 H   0  0  0  0  0  0  0  0  0  0  0  0
   -0.5780    0.3090    1.3741 H   0  0  0  0  0  0  0  0  0  0  0  0
   -2.2403    1.5099   -0.1330 H   0  0  0  0  0  0  0  0  0  0  0  0
   -1.7955    0.4229   -1.4792 H   0  0  0  0  0  0  0  0  0  0  0  0
   -2.7810   -1.2527   -0.3552 H   0  0  0  0  0  0  0  0  0  0  0  0
  1  2  2  0
  2  3  1  0
  3  4  1  0
  4  5  1  0
  5  6  1  0
  6  7  1  0
  5  8  1  0
  8  3  1  0
  2  9  1  0
  3 10  1  0
  4 11  1  0
  4 12  1  0
  5 13  1  0
  6 14  1  0
  6 15  1  0
  7 16  1  0
M  END
