
     RDKit          3D

 17 18  0  0  0  0  0  0  0  0999 V2000
    3.0458   -0.0808   -1.3715 O   0  0  0  0  0  0  0  0  0  0  0  0
    2.6670   -0.9954   -0.6739 C   0  0  0  0  0  0  0  0  0  0  0  0
    1.4745   -0.8976    0.1952 C   0  0  0  0  0  0  0  0  0  0  0  0
    1.6390    0.3228    1.0537 O   0  0  0  0  0  0  0  0  0  0  0  0
    0.5705    0.1771    0.0299 C   0  0  0  0  0  0  0  0  0  0  0  0
   -0.7727    0.2003    0.6920 C   0  0  0  0  0  0  0  0  0  0  0  0
   -1.5368    1.4602    0.3526 C   0  0  0  0  0  0  0  0  0  0  0  0
   -2.7081    0.6731    0.3404 O   0  0  0  0  0  0  0  0  0  0  0  0
   -1.8958   -0.3906   -0.0961 C   0  0  0  0  0  0  0  0  0  0  0  0
    3.2235   -1.9170   -0.6889 H   0  0  0  0  0  0  0  0  0  0  0  0
    1.2031   -1.7763    0.7943 H   0  0  0  0  0  0  0  0  0  0  0  0
    0.6841    0.8698   -0.8167 H   0  0  0  0  0  0  0  0  0  0  0  0
   -0.7839    0.0046    1.7825 H   0  0  0  0  0  0  0  0  0  0  0  0
   -1.3658    1.8234   -0.6820 H   0  0  0  0  0  0  0  0  0  0  0  0
   -1.5231    2.2350    1.1423 H   0  0  0  0  0  0  0  0  0  0  0  0
   -2.2577   -1.3770    0.1885 H   0  0  0  0  0  0  0  0  0  0  0  0
   -1.6635   -0.3314   -1.1878 H   0  0  0  0  0  0  0  0  0  0  0  0
  1  2  2  0
  2  3  1  0
  3  4  1  0
  4  5  1  0
  5  6  1  0
  6  7  1  0
  7  8  1  0
  8  9  1  0
  5  3  1  0
  9  6  1  0
  2 10  1  0
  3 11  1  0
  5 12  1  0
  6 13  1  0
  7 14  1  0
  7 15  1  0
  9 16  1  0
  9 17  1  0
M  END
