
     RDKit          3D

 16 17  0  0  0  0  0  0  0  0999 V2000
    1.0449    1.9217   -0.4241 O   0  0  0  0  0  0  0  0  0  0  0  0
    1.7095    0.9425   -0.1480 C   0  0  0  0  0  0  0  0  0  0  0  0
    1.1916   -0.4219    0.0429 C   0  0  0  0  0  0  0  0  0  0  0  0
   -0.0005   -0.6198    0.8712 C   0  0  0  0  0  0  0  0  0  0  0  0
   -1.0205    0.4550    1.0355 C   0  0  0  0  0  0  0  0  0  0  0  0
   -1.8982    0.2503   -0.0233 O   0  0  0  0  0  0  0  0  0  0  0  0
   -1.1027   -0.0466   -1.1109 C   0  0  0  0  0  0  0  0  0  0  0  0
    0.0025   -0.9278   -0.6312 C   0  0  0  0  0  0  0  0  0  0  0  0
    2.8044    1.0893   -0.0291 H   0  0  0  0  0  0  0  0  0  0  0  0
    1.9911   -1.1939    0.2417 H   0  0  0  0  0  0  0  0  0  0  0  0
   -0.1034   -1.5136    1.5386 H   0  0  0  0  0  0  0  0  0  0  0  0
   -0.6443    1.4915    0.9839 H   0  0  0  0  0  0  0  0  0  0  0  0
   -1.5329    0.2740    2.0187 H   0  0  0  0  0  0  0  0  0  0  0  0
   -0.6824    0.8788   -1.5897 H   0  0  0  0  0  0  0  0  0  0  0  0
   -1.6932   -0.5854   -1.8810 H   0  0  0  0  0  0  0  0  0  0  0  0
   -0.0660   -1.9942   -0.8952 H   0  0  0  0  0  0  0  0  0  0  0  0
  1  2  2  0
  2  3  1  0
  3  4  1  0
  4  5  1  0
  5  6  1  0
  6  7  1  0
  7  8  1  0
  8  3  1  0
  8  4  1  0
  2  9  1  0
  3 10  1  0
  4 11  1  0
  5 12  1  0
  5 13  1  0
  7 14  1  0
  7 15  1  0
  8 16  1  0
M  END
