
     RDKit          3D

 21 21  0  0  0  0  0  0  0  0999 V2000
   -0.9180   -2.5436    0.7121 O   0  0  0  0  0  0  0  0  0  0  0  0
   -1.0875   -1.7116   -0.1408 C   0  0  0  0  0  0  0  0  0  0  0  0
   -0.2980   -0.4525   -0.0970 C   0  0  0  0  0  0  0  0  0  0  0  0
    1.1351   -0.7006   -0.3447 C   0  0  0  0  0  0  0  0  0  0  0  0
    2.0470    0.4716   -0.3324 C   0  0  0  0  0  0  0  0  0  0  0  0
    2.0913    1.1677    0.8460 O   0  0  0  0  0  0  0  0  0  0  0  0
   -0.7209    0.3427    1.0953 C   0  0  0  0  0  0  0  0  0  0  0  0
   -1.9246    0.7786    0.2387 C   0  0  0  0  0  0  0  0  0  0  0  0
   -0.9642    0.6098   -0.9505 C   0  0  0  0  0  0  0  0  0  0  0  0
   -1.8052   -1.8914   -0.9186 H   0  0  0  0  0  0  0  0  0  0  0  0
    1.2459   -1.2472   -1.3095 H   0  0  0  0  0  0  0  0  0  0  0  0
    1.4937   -1.4011    0.4603 H   0  0  0  0  0  0  0  0  0  0  0  0
    1.8879    1.1709   -1.1822 H   0  0  0  0  0  0  0  0  0  0  0  0
    3.0883    0.0648   -0.5022 H   0  0  0  0  0  0  0  0  0  0  0  0
    2.8032    0.8559    1.4485 H   0  0  0  0  0  0  0  0  0  0  0  0
   -0.1562    1.2218    1.3850 H   0  0  0  0  0  0  0  0  0  0  0  0
   -1.1251   -0.2480    1.9487 H   0  0  0  0  0  0  0  0  0  0  0  0
   -2.2553    1.7994    0.4124 H   0  0  0  0  0  0  0  0  0  0  0  0
   -2.6805   -0.0060    0.1886 H   0  0  0  0  0  0  0  0  0  0  0  0
   -0.4030    1.5285   -1.1075 H   0  0  0  0  0  0  0  0  0  0  0  0
   -1.4539    0.1905   -1.8502 H   0  0  0  0  0  0  0  0  0  0  0  0
  1  2  2  0
  2  3  1  0
  3  4  1  0
  4  5  1  0
  5  6  1  0
  3  7  1  0
  7  8  1  0
  8  9  1  0
  9  3  1  0
  2 10  1  0
  4 11  1  0
  4 12  1  0
  5 13  1  0
  5 14  1  0
  6 15  1  0
  7 16  1  0
  7 17  1  0
  8 18  1  0
  8 19  1  0
  9 20  1  0
  9 21  1  0
M  END
