
     RDKit          3D

 13 14  0  0  0  0  0  0  0  0999 V2000
    2.4794   -0.4324    0.7992 O   0  0  0  0  0  0  0  0  0  0  0  0
    1.7811    0.5523    0.6162 C   0  0  0  0  0  0  0  0  0  0  0  0
    0.3041    0.4796    0.7198 C   0  0  0  0  0  0  0  0  0  0  0  0
   -0.3502   -0.8574    0.7356 C   0  0  0  0  0  0  0  0  0  0  0  0
   -1.4215   -0.4183   -0.2178 C   0  0  0  0  0  0  0  0  0  0  0  0
   -0.5226    0.7637   -0.5414 C   0  0  0  0  0  0  0  0  0  0  0  0
   -0.3591    1.6444    0.4938 O   0  0  0  0  0  0  0  0  0  0  0  0
    2.2935    1.4758    0.3758 H   0  0  0  0  0  0  0  0  0  0  0  0
    0.3212   -1.5972    0.2072 H   0  0  0  0  0  0  0  0  0  0  0  0
   -0.6481   -1.2715    1.6879 H   0  0  0  0  0  0  0  0  0  0  0  0
   -2.3034   -0.0437    0.3736 H   0  0  0  0  0  0  0  0  0  0  0  0
   -1.6514   -1.0713   -1.0586 H   0  0  0  0  0  0  0  0  0  0  0  0
    0.0769    0.7759   -1.4446 H   0  0  0  0  0  0  0  0  0  0  0  0
  1  2  2  0
  2  3  1  0
  3  4  1  0
  4  5  1  0
  5  6  1  0
  6  7  1  0
  6  3  1  0
  7  3  1  0
  2  8  1  0
  4  9  1  0
  4 10  1  0
  5 11  1  0
  5 12  1  0
  6 13  1  0
M  END
