
     RDKit          3D

 16 16  0  0  0  0  0  0  0  0999 V2000
    3.1725    0.6421   -0.2998 O   0  0  0  0  0  0  0  0  0  0  0  0
    2.7639   -0.3224    0.4066 C   0  0  0  0  0  0  0  0  0  0  0  0
    1.3726   -0.7384    0.3517 C   0  0  0  0  0  0  0  0  0  0  0  0
    1.0105   -1.6977    1.0688 O   0  0  0  0  0  0  0  0  0  0  0  0
    0.3998   -0.0611   -0.5192 C   0  0  0  0  0  0  0  0  0  0  0  0
   -0.6517    0.6911    0.2499 C   0  0  0  0  0  0  0  0  0  0  0  0
   -1.5262   -0.0646    1.1859 C   0  0  0  0  0  0  0  0  0  0  0  0
   -2.0589    0.4543   -0.1419 C   0  0  0  0  0  0  0  0  0  0  0  0
    3.4886   -0.8152    1.0431 H   0  0  0  0  0  0  0  0  0  0  0  0
    0.9173    0.6726   -1.1909 H   0  0  0  0  0  0  0  0  0  0  0  0
   -0.1304   -0.7781   -1.2059 H   0  0  0  0  0  0  0  0  0  0  0  0
   -0.3734    1.7381    0.5356 H   0  0  0  0  0  0  0  0  0  0  0  0
   -1.9512    0.4282    2.0836 H   0  0  0  0  0  0  0  0  0  0  0  0
   -1.3181   -1.1475    1.2915 H   0  0  0  0  0  0  0  0  0  0  0  0
   -2.3675   -0.3355   -0.8335 H   0  0  0  0  0  0  0  0  0  0  0  0
   -2.7477    1.3341   -0.0940 H   0  0  0  0  0  0  0  0  0  0  0  0
  1  2  2  0
  2  3  1  0
  3  4  2  0
  3  5  1  0
  5  6  1  0
  6  7  1  0
  7  8  1  0
  8  6  1  0
  2  9  1  0
  5 10  1  0
  5 11  1  0
  6 12  1  0
  7 13  1  0
  7 14  1  0
  8 15  1  0
  8 16  1  0
M  END
