
     RDKit          3D

 19 19  0  0  0  0  0  0  0  0999 V2000
    1.6658    1.4578    1.8696 O   0  0  0  0  0  0  0  0  0  0  0  0
    1.6158    1.1503    0.6861 C   0  0  0  0  0  0  0  0  0  0  0  0
    1.7356   -0.2101    0.1985 C   0  0  0  0  0  0  0  0  0  0  0  0
    0.5187   -0.9082   -0.2730 C   0  0  0  0  0  0  0  0  0  0  0  0
   -0.1730   -0.2236   -1.4136 C   0  0  0  0  0  0  0  0  0  0  0  0
   -0.5604   -0.9568   -2.5276 O   0  0  0  0  0  0  0  0  0  0  0  0
   -0.8718   -0.6056   -0.1197 C   0  0  0  0  0  0  0  0  0  0  0  0
   -1.4806    0.5054    0.6442 C   0  0  0  0  0  0  0  0  0  0  0  0
   -1.1884    0.4647    2.0181 O   0  0  0  0  0  0  0  0  0  0  0  0
    1.4719    1.9722   -0.0065 H   0  0  0  0  0  0  0  0  0  0  0  0
    2.3514   -0.8076    0.9299 H   0  0  0  0  0  0  0  0  0  0  0  0
    2.4297   -0.1728   -0.7076 H   0  0  0  0  0  0  0  0  0  0  0  0
    0.7779   -1.9890   -0.5259 H   0  0  0  0  0  0  0  0  0  0  0  0
    0.0974    0.8103   -1.6276 H   0  0  0  0  0  0  0  0  0  0  0  0
   -1.0198   -1.7790   -2.2518 H   0  0  0  0  0  0  0  0  0  0  0  0
   -1.5901   -1.4902   -0.1908 H   0  0  0  0  0  0  0  0  0  0  0  0
   -2.5825    0.4516    0.5566 H   0  0  0  0  0  0  0  0  0  0  0  0
   -1.2189    1.5203    0.2471 H   0  0  0  0  0  0  0  0  0  0  0  0
   -1.9787    0.8103    2.4940 H   0  0  0  0  0  0  0  0  0  0  0  0
  1  2  2  0
  2  3  1  0
  3  4  1  0
  4  5  1  0
  5  6  1  0
  5  7  1  0
  7  8  1  0
  8  9  1  0
  7  4  1  0
  2 10  1  0
  3 11  1  0
  3 12  1  0
  4 13  1  0
  5 14  1  0
  6 15  1  0
  7 16  1  0
  8 17  1  0
  8 18  1  0
  9 19  1  0
M  END
