
     RDKit          3D

 19 20  0  0  0  0  0  0  0  0999 V2000
   -2.7126    0.8251    1.4701 O   0  0  0  0  0  0  0  0  0  0  0  0
   -2.4269    0.3924    0.3568 C   0  0  0  0  0  0  0  0  0  0  0  0
   -1.0484    0.3291   -0.1229 C   0  0  0  0  0  0  0  0  0  0  0  0
   -0.4543   -1.0693    0.1209 C   0  0  0  0  0  0  0  0  0  0  0  0
    0.9441   -1.1873   -0.3741 C   0  0  0  0  0  0  0  0  0  0  0  0
    1.8319    0.0051    0.0173 C   0  0  0  0  0  0  0  0  0  0  0  0
    1.1030    1.1815   -0.4686 C   0  0  0  0  0  0  0  0  0  0  0  0
    0.6204    2.2609    0.0987 O   0  0  0  0  0  0  0  0  0  0  0  0
   -0.0973    1.2470    0.5128 C   0  0  0  0  0  0  0  0  0  0  0  0
   -3.2665    0.0592   -0.2492 H   0  0  0  0  0  0  0  0  0  0  0  0
   -1.0807    0.4208   -1.2459 H   0  0  0  0  0  0  0  0  0  0  0  0
   -1.0651   -1.8245   -0.3722 H   0  0  0  0  0  0  0  0  0  0  0  0
   -0.4568   -1.2646    1.2315 H   0  0  0  0  0  0  0  0  0  0  0  0
    0.9113   -1.1403   -1.5007 H   0  0  0  0  0  0  0  0  0  0  0  0
    1.3793   -2.1303   -0.0628 H   0  0  0  0  0  0  0  0  0  0  0  0
    2.7973   -0.1583   -0.5293 H   0  0  0  0  0  0  0  0  0  0  0  0
    2.0547   -0.0056    1.0992 H   0  0  0  0  0  0  0  0  0  0  0  0
    0.8488    1.1031   -1.5673 H   0  0  0  0  0  0  0  0  0  0  0  0
    0.1177    0.9559    1.5857 H   0  0  0  0  0  0  0  0  0  0  0  0
  1  2  2  0
  2  3  1  0
  3  4  1  0
  4  5  1  0
  5  6  1  0
  6  7  1  0
  7  8  1  0
  8  9  1  0
  9  3  1  0
  9  7  1  0
  2 10  1  0
  3 11  1  0
  4 12  1  0
  4 13  1  0
  5 14  1  0
  5 15  1  0
  6 16  1  0
  6 17  1  0
  7 18  1  0
  9 19  1  0
M  END
