
     RDKit          3D

 21 22  0  0  0  0  0  0  0  0999 V2000
    3.3757    0.2542    1.0665 O   0  0  0  0  0  0  0  0  0  0  0  0
    2.5688    0.7056    0.2970 C   0  0  0  0  0  0  0  0  0  0  0  0
    1.7200   -0.2073   -0.4824 C   0  0  0  0  0  0  0  0  0  0  0  0
    0.7159   -0.8888    0.4526 C   0  0  0  0  0  0  0  0  0  0  0  0
   -0.3517   -0.0580   -0.1530 C   0  0  0  0  0  0  0  0  0  0  0  0
   -1.1234    0.8599    0.7008 C   0  0  0  0  0  0  0  0  0  0  0  0
   -2.2296   -0.2056    0.7175 C   0  0  0  0  0  0  0  0  0  0  0  0
   -1.6137   -0.7406   -0.5686 C   0  0  0  0  0  0  0  0  0  0  0  0
    0.5427    0.4697   -1.1903 C   0  0  0  0  0  0  0  0  0  0  0  0
    2.4818    1.7630    0.1921 H   0  0  0  0  0  0  0  0  0  0  0  0
    2.2843   -0.9157   -1.1213 H   0  0  0  0  0  0  0  0  0  0  0  0
    0.9265   -0.7488    1.5226 H   0  0  0  0  0  0  0  0  0  0  0  0
    0.6101   -1.9563    0.1524 H   0  0  0  0  0  0  0  0  0  0  0  0
   -1.4720    1.7500    0.1466 H   0  0  0  0  0  0  0  0  0  0  0  0
   -0.7500    1.1330    1.6847 H   0  0  0  0  0  0  0  0  0  0  0  0
   -2.0302   -0.8981    1.5363 H   0  0  0  0  0  0  0  0  0  0  0  0
   -3.2091    0.2484    0.6272 H   0  0  0  0  0  0  0  0  0  0  0  0
   -1.4648   -1.8372   -0.5905 H   0  0  0  0  0  0  0  0  0  0  0  0
   -2.0358   -0.2918   -1.4952 H   0  0  0  0  0  0  0  0  0  0  0  0
    0.6505    1.5637   -1.3030 H   0  0  0  0  0  0  0  0  0  0  0  0
    0.4038    0.0008   -2.1921 H   0  0  0  0  0  0  0  0  0  0  0  0
  1  2  2  0
  2  3  1  0
  3  4  1  0
  4  5  1  0
  5  6  1  0
  6  7  1  0
  7  8  1  0
  5  9  1  0
  9  3  1  0
  8  5  1  0
  2 10  1  0
  3 11  1  0
  4 12  1  0
  4 13  1  0
  6 14  1  0
  6 15  1  0
  7 16  1  0
  7 17  1  0
  8 18  1  0
  8 19  1  0
  9 20  1  0
  9 21  1  0
M  END
