
     RDKit          3D

 20 20  0  0  0  0  0  0  0  0999 V2000
    2.5055   -1.2856   -0.7520 O   0  0  0  0  0  0  0  0  0  0  0  0
    2.6774   -0.4221    0.0884 C   0  0  0  0  0  0  0  0  0  0  0  0
    1.5788    0.5217    0.3600 C   0  0  0  0  0  0  0  0  0  0  0  0
    0.3740    0.2597   -0.4748 C   0  0  0  0  0  0  0  0  0  0  0  0
   -0.7077    1.2595   -0.1458 C   0  0  0  0  0  0  0  0  0  0  0  0
   -1.9454    0.4970    0.1946 C   0  0  0  0  0  0  0  0  0  0  0  0
   -1.5891   -0.9524    0.2563 C   0  0  0  0  0  0  0  0  0  0  0  0
   -0.2021   -1.0980   -0.3358 C   0  0  0  0  0  0  0  0  0  0  0  0
    3.6283   -0.3815    0.6021 H   0  0  0  0  0  0  0  0  0  0  0  0
    1.3479    0.5967    1.4444 H   0  0  0  0  0  0  0  0  0  0  0  0
    1.9603    1.5443    0.0778 H   0  0  0  0  0  0  0  0  0  0  0  0
    0.6828    0.3897   -1.5512 H   0  0  0  0  0  0  0  0  0  0  0  0
   -0.4018    1.9453    0.6952 H   0  0  0  0  0  0  0  0  0  0  0  0
   -0.8780    1.9307   -1.0293 H   0  0  0  0  0  0  0  0  0  0  0  0
   -2.7189    0.7008   -0.5998 H   0  0  0  0  0  0  0  0  0  0  0  0
   -2.3750    0.7958    1.1896 H   0  0  0  0  0  0  0  0  0  0  0  0
   -1.6548   -1.3769    1.2846 H   0  0  0  0  0  0  0  0  0  0  0  0
   -2.3430   -1.5132   -0.3480 H   0  0  0  0  0  0  0  0  0  0  0  0
    0.3648   -1.7726    0.3464 H   0  0  0  0  0  0  0  0  0  0  0  0
   -0.3041   -1.6389   -1.3028 H   0  0  0  0  0  0  0  0  0  0  0  0
  1  2  2  0
  2  3  1  0
  3  4  1  0
  4  5  1  0
  5  6  1  0
  6  7  1  0
  7  8  1  0
  8  4  1  0
  2  9  1  0
  3 10  1  0
  3 11  1  0
  4 12  1  0
  5 13  1  0
  5 14  1  0
  6 15  1  0
  6 16  1  0
  7 17  1  0
  7 18  1  0
  8 19  1  0
  8 20  1  0
M  END
