
     RDKit          3D

 16 16  0  0  0  0  0  0  0  0999 V2000
   -1.5094    0.4075   -1.4084 O   0  0  0  0  0  0  0  0  0  0  0  0
   -1.7087    0.7526   -0.2599 C   0  0  0  0  0  0  0  0  0  0  0  0
   -0.8693    0.3226    0.8671 C   0  0  0  0  0  0  0  0  0  0  0  0
   -0.2038   -1.0221    0.8843 C   0  0  0  0  0  0  0  0  0  0  0  0
   -0.5594   -1.8226   -0.2248 O   0  0  0  0  0  0  0  0  0  0  0  0
    0.6462    0.1700    0.6987 C   0  0  0  0  0  0  0  0  0  0  0  0
    1.2058    0.5686   -0.6134 C   0  0  0  0  0  0  0  0  0  0  0  0
    2.5957    0.3859   -0.6218 O   0  0  0  0  0  0  0  0  0  0  0  0
   -2.5665    1.4125   -0.1279 H   0  0  0  0  0  0  0  0  0  0  0  0
   -1.2080    0.7197    1.8593 H   0  0  0  0  0  0  0  0  0  0  0  0
   -0.1696   -1.5800    1.8208 H   0  0  0  0  0  0  0  0  0  0  0  0
   -1.5335   -1.9792   -0.1203 H   0  0  0  0  0  0  0  0  0  0  0  0
    1.2542    0.4462    1.6077 H   0  0  0  0  0  0  0  0  0  0  0  0
    0.7370   -0.0120   -1.4588 H   0  0  0  0  0  0  0  0  0  0  0  0
    1.0323    1.6445   -0.8081 H   0  0  0  0  0  0  0  0  0  0  0  0
    2.8570   -0.4142   -0.1119 H   0  0  0  0  0  0  0  0  0  0  0  0
  1  2  2  0
  2  3  1  0
  3  4  1  0
  4  5  1  0
  4  6  1  0
  6  7  1  0
  7  8  1  0
  6  3  1  0
  2  9  1  0
  3 10  1  0
  4 11  1  0
  5 12  1  0
  6 13  1  0
  7 14  1  0
  7 15  1  0
  8 16  1  0
M  END
