
     RDKit          3D

 12 12  0  0  0  0  0  0  0  0999 V2000
    1.8883   -1.3449    0.7461 O   0  0  0  0  0  0  0  0  0  0  0  0
    1.8454   -0.1289    0.6686 C   0  0  0  0  0  0  0  0  0  0  0  0
    0.6041    0.5572    0.2133 C   0  0  0  0  0  0  0  0  0  0  0  0
   -0.4460   -0.4695   -0.0886 C   0  0  0  0  0  0  0  0  0  0  0  0
   -1.7996   -0.0040   -0.5705 C   0  0  0  0  0  0  0  0  0  0  0  0
   -1.5613   -0.4088    0.7427 O   0  0  0  0  0  0  0  0  0  0  0  0
    2.7491    0.4161    0.9460 H   0  0  0  0  0  0  0  0  0  0  0  0
    0.3030    1.2317    1.0656 H   0  0  0  0  0  0  0  0  0  0  0  0
    0.8069    1.2266   -0.6657 H   0  0  0  0  0  0  0  0  0  0  0  0
   -0.1053   -1.4378   -0.4909 H   0  0  0  0  0  0  0  0  0  0  0  0
   -1.8501    1.0728   -0.8137 H   0  0  0  0  0  0  0  0  0  0  0  0
   -2.4346   -0.7105   -1.1342 H   0  0  0  0  0  0  0  0  0  0  0  0
  1  2  2  0
  2  3  1  0
  3  4  1  0
  4  5  1  0
  5  6  1  0
  6  4  1  0
  2  7  1  0
  3  8  1  0
  3  9  1  0
  4 10  1  0
  5 11  1  0
  5 12  1  0
M  END
