
     RDKit          3D

 19 20  0  0  0  0  0  0  0  0999 V2000
   -3.3877    0.0301    0.9760 O   0  0  0  0  0  0  0  0  0  0  0  0
   -2.1918    0.0843    0.7988 C   0  0  0  0  0  0  0  0  0  0  0  0
   -1.6253   -0.1382   -0.5308 C   0  0  0  0  0  0  0  0  0  0  0  0
   -0.4460    0.5925   -1.0338 C   0  0  0  0  0  0  0  0  0  0  0  0
    0.5485    1.2419   -0.1213 C   0  0  0  0  0  0  0  0  0  0  0  0
    1.5786    0.1151    0.0192 C   0  0  0  0  0  0  0  0  0  0  0  0
    2.5407    0.3864    0.9342 O   0  0  0  0  0  0  0  0  0  0  0  0
    0.6422   -1.0107    0.4129 C   0  0  0  0  0  0  0  0  0  0  0  0
   -0.3713   -0.9184   -0.7168 C   0  0  0  0  0  0  0  0  0  0  0  0
   -1.5685    0.3008    1.6522 H   0  0  0  0  0  0  0  0  0  0  0  0
   -2.3898   -0.3538   -1.3264 H   0  0  0  0  0  0  0  0  0  0  0  0
   -0.3715    0.8909   -2.0845 H   0  0  0  0  0  0  0  0  0  0  0  0
    0.1471    1.4619    0.8894 H   0  0  0  0  0  0  0  0  0  0  0  0
    1.0313    2.1302   -0.5662 H   0  0  0  0  0  0  0  0  0  0  0  0
    1.9453   -0.1261   -1.0019 H   0  0  0  0  0  0  0  0  0  0  0  0
    2.8415   -0.4012    1.4691 H   0  0  0  0  0  0  0  0  0  0  0  0
    0.1728   -0.7349    1.3808 H   0  0  0  0  0  0  0  0  0  0  0  0
    1.1298   -1.9869    0.4495 H   0  0  0  0  0  0  0  0  0  0  0  0
   -0.2259   -1.5640   -1.6003 H   0  0  0  0  0  0  0  0  0  0  0  0
  1  2  2  0
  2  3  1  0
  3  4  1  0
  4  5  1  0
  5  6  1  0
  6  7  1  0
  6  8  1  0
  8  9  1  0
  9  3  1  0
  9  4  1  0
  2 10  1  0
  3 11  1  0
  4 12  1  0
  5 13  1  0
  5 14  1  0
  6 15  1  0
  7 16  1  0
  8 17  1  0
  8 18  1  0
  9 19  1  0
M  END
