
     RDKit          3D

 17 17  0  0  0  0  0  0  0  0999 V2000
    3.4398    0.4037   -0.6223 O   0  0  0  0  0  0  0  0  0  0  0  0
    2.9410   -0.3115    0.2848 C   0  0  0  0  0  0  0  0  0  0  0  0
    1.4864   -0.3821    0.4485 C   0  0  0  0  0  0  0  0  0  0  0  0
    1.1075   -1.1278    1.3866 O   0  0  0  0  0  0  0  0  0  0  0  0
    0.6804    0.3960   -0.4670 C   0  0  0  0  0  0  0  0  0  0  0  0
   -0.7747    0.4042   -0.3678 C   0  0  0  0  0  0  0  0  0  0  0  0
   -1.6562   -0.7614   -0.4767 C   0  0  0  0  0  0  0  0  0  0  0  0
   -1.5356   -0.0095    0.8582 C   0  0  0  0  0  0  0  0  0  0  0  0
   -2.6616    0.7415    1.2468 O   0  0  0  0  0  0  0  0  0  0  0  0
    3.6392   -0.8508    0.9121 H   0  0  0  0  0  0  0  0  0  0  0  0
    1.0607    1.4655   -0.3812 H   0  0  0  0  0  0  0  0  0  0  0  0
    0.9527    0.0494   -1.5152 H   0  0  0  0  0  0  0  0  0  0  0  0
   -1.2190    1.3468   -0.8314 H   0  0  0  0  0  0  0  0  0  0  0  0
   -2.6422   -0.6424   -0.9676 H   0  0  0  0  0  0  0  0  0  0  0  0
   -1.3025   -1.8039   -0.4905 H   0  0  0  0  0  0  0  0  0  0  0  0
   -1.0795   -0.6036    1.6594 H   0  0  0  0  0  0  0  0  0  0  0  0
   -2.4362    1.6860    0.9761 H   0  0  0  0  0  0  0  0  0  0  0  0
  1  2  2  0
  2  3  1  0
  3  4  2  0
  3  5  1  0
  5  6  1  0
  6  7  1  0
  7  8  1  0
  8  9  1  0
  8  6  1  0
  2 10  1  0
  5 11  1  0
  5 12  1  0
  6 13  1  0
  7 14  1  0
  7 15  1  0
  8 16  1  0
  9 17  1  0
M  END
