
     RDKit          3D

 16 16  0  0  0  0  0  0  0  0999 V2000
    2.8662    0.0989   -0.7825 O   0  0  0  0  0  0  0  0  0  0  0  0
    1.7947   -0.4437   -0.6347 C   0  0  0  0  0  0  0  0  0  0  0  0
    0.9160   -0.0679    0.4737 C   0  0  0  0  0  0  0  0  0  0  0  0
    0.3597    1.3273    0.3221 C   0  0  0  0  0  0  0  0  0  0  0  0
   -0.8013    1.2994   -0.3091 C   0  0  0  0  0  0  0  0  0  0  0  0
   -1.1247   -0.1027   -0.6361 C   0  0  0  0  0  0  0  0  0  0  0  0
   -0.3836   -0.8959    0.4031 C   0  0  0  0  0  0  0  0  0  0  0  0
   -1.0046   -0.9224    1.6278 O   0  0  0  0  0  0  0  0  0  0  0  0
    1.4973   -1.2065   -1.3299 H   0  0  0  0  0  0  0  0  0  0  0  0
    1.4101   -0.1984    1.4425 H   0  0  0  0  0  0  0  0  0  0  0  0
    0.8725    2.2077    0.6938 H   0  0  0  0  0  0  0  0  0  0  0  0
   -1.4366    2.1822   -0.5571 H   0  0  0  0  0  0  0  0  0  0  0  0
   -0.6543   -0.3420   -1.6126 H   0  0  0  0  0  0  0  0  0  0  0  0
   -2.2154   -0.3045   -0.6339 H   0  0  0  0  0  0  0  0  0  0  0  0
   -0.1241   -1.9051    0.0077 H   0  0  0  0  0  0  0  0  0  0  0  0
   -1.9719   -0.7267    1.5252 H   0  0  0  0  0  0  0  0  0  0  0  0
  1  2  2  0
  2  3  1  0
  3  4  1  0
  4  5  2  0
  5  6  1  0
  6  7  1  0
  7  8  1  0
  7  3  1  0
  2  9  1  0
  3 10  1  0
  4 11  1  0
  5 12  1  0
  6 13  1  0
  6 14  1  0
  7 15  1  0
  8 16  1  0
M  END
