
     RDKit          3D

 17 18  0  0  0  0  0  0  0  0999 V2000
   -0.4348    2.3715    0.8884 O   0  0  0  0  0  0  0  0  0  0  0  0
    0.4845    1.5860    1.0340 C   0  0  0  0  0  0  0  0  0  0  0  0
    0.8286    0.6843   -0.0841 C   0  0  0  0  0  0  0  0  0  0  0  0
    1.8763   -0.1576    0.1847 O   0  0  0  0  0  0  0  0  0  0  0  0
    1.5634   -1.4126   -0.2985 C   0  0  0  0  0  0  0  0  0  0  0  0
    0.3704   -1.3345   -0.9770 O   0  0  0  0  0  0  0  0  0  0  0  0
   -0.2861   -0.2809   -0.4073 C   0  0  0  0  0  0  0  0  0  0  0  0
   -1.4464   -0.4564    0.4849 C   0  0  0  0  0  0  0  0  0  0  0  0
   -1.5582    0.2592   -0.8478 C   0  0  0  0  0  0  0  0  0  0  0  0
    1.0041    1.5912    1.9831 H   0  0  0  0  0  0  0  0  0  0  0  0
    1.0190    1.2596   -1.0388 H   0  0  0  0  0  0  0  0  0  0  0  0
    1.5612   -2.1109    0.5562 H   0  0  0  0  0  0  0  0  0  0  0  0
    2.3838   -1.7478   -0.9720 H   0  0  0  0  0  0  0  0  0  0  0  0
   -1.9332   -1.4528    0.4843 H   0  0  0  0  0  0  0  0  0  0  0  0
   -1.5451    0.0972    1.4184 H   0  0  0  0  0  0  0  0  0  0  0  0
   -2.1132   -0.2406   -1.6795 H   0  0  0  0  0  0  0  0  0  0  0  0
   -1.7743    1.3451   -0.7291 H   0  0  0  0  0  0  0  0  0  0  0  0
  1  2  2  0
  2  3  1  0
  3  4  1  0
  4  5  1  0
  5  6  1  0
  6  7  1  0
  7  8  1  0
  8  9  1  0
  7  3  1  0
  9  7  1  0
  2 10  1  0
  3 11  1  0
  5 12  1  0
  5 13  1  0
  8 14  1  0
  8 15  1  0
  9 16  1  0
  9 17  1  0
M  END
