
     RDKit          3D

 15 16  0  0  0  0  0  0  0  0999 V2000
    2.1798    0.2240    1.1540 O   0  0  0  0  0  0  0  0  0  0  0  0
    2.2248   -0.0552   -0.0291 C   0  0  0  0  0  0  0  0  0  0  0  0
    0.9850   -0.2126   -0.7918 C   0  0  0  0  0  0  0  0  0  0  0  0
   -0.0380    0.8918   -0.6397 C   0  0  0  0  0  0  0  0  0  0  0  0
   -1.1514   -0.0846   -0.4838 C   0  0  0  0  0  0  0  0  0  0  0  0
   -2.1678    0.2032    0.5360 C   0  0  0  0  0  0  0  0  0  0  0  0
   -2.9874   -0.6133    0.9396 O   0  0  0  0  0  0  0  0  0  0  0  0
   -1.1309   -1.3451   -1.0054 O   0  0  0  0  0  0  0  0  0  0  0  0
   -0.0645   -1.1203   -0.1806 C   0  0  0  0  0  0  0  0  0  0  0  0
    3.2016   -0.1782   -0.4778 H   0  0  0  0  0  0  0  0  0  0  0  0
    1.1662   -0.5204   -1.8606 H   0  0  0  0  0  0  0  0  0  0  0  0
    0.1465    1.4084    0.3490 H   0  0  0  0  0  0  0  0  0  0  0  0
   -0.1083    1.6056   -1.4676 H   0  0  0  0  0  0  0  0  0  0  0  0
   -2.2222    1.1914    0.9790 H   0  0  0  0  0  0  0  0  0  0  0  0
   -0.0334   -1.3947    0.8640 H   0  0  0  0  0  0  0  0  0  0  0  0
  1  2  2  0
  2  3  1  0
  3  4  1  0
  4  5  1  0
  5  6  1  0
  6  7  2  0
  5  8  1  0
  8  9  1  0
  9  3  1  0
  9  5  1  0
  2 10  1  0
  3 11  1  0
  4 12  1  0
  4 13  1  0
  6 14  1  0
  9 15  1  0
M  END
