
     RDKit          3D

 17 19  0  0  0  0  0  0  0  0999 V2000
   -1.9297    1.5987   -0.7278 O   0  0  0  0  0  0  0  0  0  0  0  0
   -1.4893    0.4766   -0.8497 C   0  0  0  0  0  0  0  0  0  0  0  0
   -1.0249   -0.1803    0.4072 C   0  0  0  0  0  0  0  0  0  0  0  0
   -1.0616   -1.5969    0.3571 C   0  0  0  0  0  0  0  0  0  0  0  0
    0.2785   -1.0774    0.2766 C   0  0  0  0  0  0  0  0  0  0  0  0
    0.8069    0.2389   -0.1647 C   0  0  0  0  0  0  0  0  0  0  0  0
    1.9881    0.6853   -0.6150 C   0  0  0  0  0  0  0  0  0  0  0  0
    0.6984    0.7928   -1.3764 O   0  0  0  0  0  0  0  0  0  0  0  0
    0.0065    0.7201    1.0540 C   0  0  0  0  0  0  0  0  0  0  0  0
   -1.4647    0.0425   -1.8333 H   0  0  0  0  0  0  0  0  0  0  0  0
   -1.5044   -2.1103    1.2637 H   0  0  0  0  0  0  0  0  0  0  0  0
   -1.4086   -2.1613   -0.5608 H   0  0  0  0  0  0  0  0  0  0  0  0
    0.8054   -1.2681    1.2729 H   0  0  0  0  0  0  0  0  0  0  0  0
    2.7307    0.0532   -1.1632 H   0  0  0  0  0  0  0  0  0  0  0  0
    2.3792    1.7153   -0.4619 H   0  0  0  0  0  0  0  0  0  0  0  0
    0.4556    0.3013    1.9699 H   0  0  0  0  0  0  0  0  0  0  0  0
   -0.2661    1.7696    1.0457 H   0  0  0  0  0  0  0  0  0  0  0  0
  1  2  2  0
  2  3  1  0
  3  4  1  0
  4  5  1  0
  5  6  1  0
  6  7  1  0
  7  8  1  0
  6  9  1  0
  5  3  1  0
  8  6  1  0
  9  3  1  0
  2 10  1  0
  4 11  1  0
  4 12  1  0
  5 13  1  0
  7 14  1  0
  7 15  1  0
  9 16  1  0
  9 17  1  0
M  END
