
     RDKit          3D

 19 19  0  0  0  0  0  0  0  0999 V2000
    1.8156    1.6306   -0.1319 O   0  0  0  0  0  0  0  0  0  0  0  0
    2.4342    0.5455   -0.1502 C   0  0  0  0  0  0  0  0  0  0  0  0
    1.7279   -0.6929   -0.0396 C   0  0  0  0  0  0  0  0  0  0  0  0
    2.4060   -1.7633   -0.0578 O   0  0  0  0  0  0  0  0  0  0  0  0
    0.2693   -0.8320    0.0945 C   0  0  0  0  0  0  0  0  0  0  0  0
   -0.4053   -0.2360   -1.1240 C   0  0  0  0  0  0  0  0  0  0  0  0
   -1.7772    0.1039   -0.5147 C   0  0  0  0  0  0  0  0  0  0  0  0
   -1.3410    0.8134    0.7464 C   0  0  0  0  0  0  0  0  0  0  0  0
   -0.2982   -0.1089    1.2861 C   0  0  0  0  0  0  0  0  0  0  0  0
    3.4980    0.5698   -0.2502 H   0  0  0  0  0  0  0  0  0  0  0  0
   -0.0227   -1.9138    0.0977 H   0  0  0  0  0  0  0  0  0  0  0  0
   -0.4900   -0.9270   -1.9628 H   0  0  0  0  0  0  0  0  0  0  0  0
    0.0714    0.7260   -1.3637 H   0  0  0  0  0  0  0  0  0  0  0  0
   -2.2328   -0.8990   -0.2909 H   0  0  0  0  0  0  0  0  0  0  0  0
   -2.3819    0.7164   -1.1835 H   0  0  0  0  0  0  0  0  0  0  0  0
   -2.1852    0.9780    1.4456 H   0  0  0  0  0  0  0  0  0  0  0  0
   -0.8617    1.7585    0.4281 H   0  0  0  0  0  0  0  0  0  0  0  0
   -0.7503   -0.8768    1.9559 H   0  0  0  0  0  0  0  0  0  0  0  0
    0.5239    0.4076    1.8147 H   0  0  0  0  0  0  0  0  0  0  0  0
  1  2  2  0
  2  3  1  0
  3  4  2  0
  3  5  1  0
  5  6  1  0
  6  7  1  0
  7  8  1  0
  8  9  1  0
  9  5  1  0
  2 10  1  0
  5 11  1  0
  6 12  1  0
  6 13  1  0
  7 14  1  0
  7 15  1  0
  8 16  1  0
  8 17  1  0
  9 18  1  0
  9 19  1  0
M  END
