
     RDKit          3D

 17 18  0  0  0  0  0  0  0  0999 V2000
    2.2355   -0.0431   -1.3786 O   0  0  0  0  0  0  0  0  0  0  0  0
    2.4180   -0.0409   -0.1743 C   0  0  0  0  0  0  0  0  0  0  0  0
    1.2664   -0.1058    0.7379 C   0  0  0  0  0  0  0  0  0  0  0  0
    0.0087   -0.1660   -0.0495 C   0  0  0  0  0  0  0  0  0  0  0  0
   -0.2708    0.9688   -0.9585 C   0  0  0  0  0  0  0  0  0  0  0  0
   -1.1321    0.7646    0.2077 C   0  0  0  0  0  0  0  0  0  0  0  0
   -2.1156   -0.3871    0.1060 C   0  0  0  0  0  0  0  0  0  0  0  0
   -0.9361   -1.2858    0.0836 C   0  0  0  0  0  0  0  0  0  0  0  0
   -0.8130   -2.4889    0.1506 O   0  0  0  0  0  0  0  0  0  0  0  0
    3.4528    0.0106    0.1409 H   0  0  0  0  0  0  0  0  0  0  0  0
    1.3203    0.7481    1.4430 H   0  0  0  0  0  0  0  0  0  0  0  0
    1.4179   -1.0202    1.3821 H   0  0  0  0  0  0  0  0  0  0  0  0
   -0.7185    0.6948   -1.9518 H   0  0  0  0  0  0  0  0  0  0  0  0
    0.4168    1.8104   -0.9454 H   0  0  0  0  0  0  0  0  0  0  0  0
   -1.0815    1.3528    1.1268 H   0  0  0  0  0  0  0  0  0  0  0  0
   -2.7990   -0.5015    0.9465 H   0  0  0  0  0  0  0  0  0  0  0  0
   -2.6698   -0.3106   -0.8671 H   0  0  0  0  0  0  0  0  0  0  0  0
  1  2  2  0
  2  3  1  0
  3  4  1  0
  4  5  1  0
  5  6  1  0
  6  7  1  0
  7  8  1  0
  8  9  2  0
  6  4  1  0
  8  4  1  0
  2 10  1  0
  3 11  1  0
  3 12  1  0
  5 13  1  0
  5 14  1  0
  6 15  1  0
  7 16  1  0
  7 17  1  0
M  END
