
     RDKit          3D

 17 17  0  0  0  0  0  0  0  0999 V2000
   -1.5050    2.7550   -0.0902 O   0  0  0  0  0  0  0  0  0  0  0  0
   -1.2630    1.5886   -0.4144 C   0  0  0  0  0  0  0  0  0  0  0  0
   -0.3450    0.7574    0.3918 C   0  0  0  0  0  0  0  0  0  0  0  0
   -0.9666   -0.4344    1.0733 C   0  0  0  0  0  0  0  0  0  0  0  0
   -0.0874   -1.3842    0.2879 C   0  0  0  0  0  0  0  0  0  0  0  0
    0.4903   -0.2014   -0.4253 C   0  0  0  0  0  0  0  0  0  0  0  0
    0.2023   -0.2272   -1.7851 O   0  0  0  0  0  0  0  0  0  0  0  0
    1.9457    0.0549   -0.1444 C   0  0  0  0  0  0  0  0  0  0  0  0
    2.7616    0.2181   -1.0066 O   0  0  0  0  0  0  0  0  0  0  0  0
   -1.7654    1.2438   -1.3087 H   0  0  0  0  0  0  0  0  0  0  0  0
    0.2193    1.3744    1.1213 H   0  0  0  0  0  0  0  0  0  0  0  0
   -2.0434   -0.4972    0.8691 H   0  0  0  0  0  0  0  0  0  0  0  0
   -0.7858   -0.4778    2.1648 H   0  0  0  0  0  0  0  0  0  0  0  0
    0.6879   -1.8767    0.9169 H   0  0  0  0  0  0  0  0  0  0  0  0
   -0.6204   -2.1075   -0.3418 H   0  0  0  0  0  0  0  0  0  0  0  0
    0.8008   -0.8800   -2.1963 H   0  0  0  0  0  0  0  0  0  0  0  0
    2.2742    0.0943    0.8878 H   0  0  0  0  0  0  0  0  0  0  0  0
  1  2  2  0
  2  3  1  0
  3  4  1  0
  4  5  1  0
  5  6  1  0
  6  7  1  0
  6  8  1  0
  8  9  2  0
  6  3  1  0
  2 10  1  0
  3 11  1  0
  4 12  1  0
  4 13  1  0
  5 14  1  0
  5 15  1  0
  7 16  1  0
  8 17  1  0
M  END
