
     RDKit          3D

 19 20  0  0  0  0  0  0  0  0999 V2000
    1.9099   -0.0480   -2.1173 O   0  0  0  0  0  0  0  0  0  0  0  0
    2.1407   -0.0278   -0.9282 C   0  0  0  0  0  0  0  0  0  0  0  0
    1.1462   -0.3473    0.1254 C   0  0  0  0  0  0  0  0  0  0  0  0
    0.7945    0.8831    0.8661 C   0  0  0  0  0  0  0  0  0  0  0  0
   -0.3234    1.5529    0.7098 C   0  0  0  0  0  0  0  0  0  0  0  0
   -1.3175    1.0735   -0.2619 C   0  0  0  0  0  0  0  0  0  0  0  0
   -1.3074   -0.4061   -0.4453 C   0  0  0  0  0  0  0  0  0  0  0  0
   -1.1059   -1.3596    0.6537 C   0  0  0  0  0  0  0  0  0  0  0  0
   -0.0363   -1.0883   -0.4058 C   0  0  0  0  0  0  0  0  0  0  0  0
    3.1476    0.2418   -0.5675 H   0  0  0  0  0  0  0  0  0  0  0  0
    1.6594   -1.0273    0.8464 H   0  0  0  0  0  0  0  0  0  0  0  0
    1.5441    1.2405    1.5945 H   0  0  0  0  0  0  0  0  0  0  0  0
   -0.5082    2.4345    1.2812 H   0  0  0  0  0  0  0  0  0  0  0  0
   -2.3452    1.4250   -0.0498 H   0  0  0  0  0  0  0  0  0  0  0  0
   -1.0389    1.5271   -1.2550 H   0  0  0  0  0  0  0  0  0  0  0  0
   -2.0373   -0.7496   -1.2369 H   0  0  0  0  0  0  0  0  0  0  0  0
   -1.5961   -2.3684    0.5973 H   0  0  0  0  0  0  0  0  0  0  0  0
   -0.9225   -1.0494    1.6909 H   0  0  0  0  0  0  0  0  0  0  0  0
    0.1963   -1.9066   -1.0975 H   0  0  0  0  0  0  0  0  0  0  0  0
  1  2  2  0
  2  3  1  0
  3  4  1  0
  4  5  2  0
  5  6  1  0
  6  7  1  0
  7  8  1  0
  8  9  1  0
  9  3  1  0
  9  7  1  0
  2 10  1  0
  3 11  1  0
  4 12  1  0
  5 13  1  0
  6 14  1  0
  6 15  1  0
  7 16  1  0
  8 17  1  0
  8 18  1  0
  9 19  1  0
M  END
