
     RDKit          3D

 19 19  0  0  0  0  0  0  0  0999 V2000
   -2.1053    1.5030    0.5475 O   0  0  0  0  0  0  0  0  0  0  0  0
   -2.8020    0.6907   -0.0267 C   0  0  0  0  0  0  0  0  0  0  0  0
   -2.2155   -0.4703   -0.7100 C   0  0  0  0  0  0  0  0  0  0  0  0
   -0.8730   -0.5606   -0.5714 O   0  0  0  0  0  0  0  0  0  0  0  0
   -0.3442   -0.7459    0.6692 C   0  0  0  0  0  0  0  0  0  0  0  0
    1.1787   -0.8216    0.4678 C   0  0  0  0  0  0  0  0  0  0  0  0
    1.5691    0.4947   -0.1472 C   0  0  0  0  0  0  0  0  0  0  0  0
    2.8756    0.8544   -0.4954 C   0  0  0  0  0  0  0  0  0  0  0  0
    2.3531    1.2552    0.8607 O   0  0  0  0  0  0  0  0  0  0  0  0
   -3.8954    0.8006   -0.0521 H   0  0  0  0  0  0  0  0  0  0  0  0
   -2.6684   -1.4346   -0.3672 H   0  0  0  0  0  0  0  0  0  0  0  0
   -2.4147   -0.3371   -1.8200 H   0  0  0  0  0  0  0  0  0  0  0  0
   -0.6909   -1.6796    1.1723 H   0  0  0  0  0  0  0  0  0  0  0  0
   -0.5309    0.1264    1.3164 H   0  0  0  0  0  0  0  0  0  0  0  0
    1.3928   -1.6238   -0.2960 H   0  0  0  0  0  0  0  0  0  0  0  0
    1.6338   -1.0540    1.4263 H   0  0  0  0  0  0  0  0  0  0  0  0
    0.7086    1.0815   -0.5585 H   0  0  0  0  0  0  0  0  0  0  0  0
    3.7208    0.1419   -0.4002 H   0  0  0  0  0  0  0  0  0  0  0  0
    3.1078    1.7790   -1.0155 H   0  0  0  0  0  0  0  0  0  0  0  0
  1  2  2  0
  2  3  1  0
  3  4  1  0
  4  5  1  0
  5  6  1  0
  6  7  1  0
  7  8  1  0
  8  9  1  0
  9  7  1  0
  2 10  1  0
  3 11  1  0
  3 12  1  0
  5 13  1  0
  5 14  1  0
  6 15  1  0
  6 16  1  0
  7 17  1  0
  8 18  1  0
  8 19  1  0
M  END
