
     RDKit          3D

 21 22  0  0  0  0  0  0  0  0999 V2000
    2.0832   -1.7614   -0.3003 O   0  0  0  0  0  0  0  0  0  0  0  0
    2.4233   -0.6786    0.1217 C   0  0  0  0  0  0  0  0  0  0  0  0
    1.5566    0.4465    0.4569 C   0  0  0  0  0  0  0  0  0  0  0  0
    0.1094    0.2583    0.2662 C   0  0  0  0  0  0  0  0  0  0  0  0
   -0.5627   -0.8310    1.0290 C   0  0  0  0  0  0  0  0  0  0  0  0
   -1.0461   -1.4201   -0.3029 C   0  0  0  0  0  0  0  0  0  0  0  0
   -0.4726   -0.2086   -0.9748 C   0  0  0  0  0  0  0  0  0  0  0  0
   -1.4694    0.9321   -0.9500 C   0  0  0  0  0  0  0  0  0  0  0  0
   -0.6434    1.5588    0.1481 C   0  0  0  0  0  0  0  0  0  0  0  0
    3.4935   -0.5530    0.2578 H   0  0  0  0  0  0  0  0  0  0  0  0
    1.9075    1.3517   -0.0805 H   0  0  0  0  0  0  0  0  0  0  0  0
    1.7319    0.6826    1.5499 H   0  0  0  0  0  0  0  0  0  0  0  0
   -1.3908   -0.4331    1.6556 H   0  0  0  0  0  0  0  0  0  0  0  0
    0.1210   -1.5076    1.5598 H   0  0  0  0  0  0  0  0  0  0  0  0
   -0.6044   -2.3869   -0.5611 H   0  0  0  0  0  0  0  0  0  0  0  0
   -2.1604   -1.4486   -0.3219 H   0  0  0  0  0  0  0  0  0  0  0  0
    0.1018   -0.3441   -1.8781 H   0  0  0  0  0  0  0  0  0  0  0  0
   -2.4753    0.6575   -0.5462 H   0  0  0  0  0  0  0  0  0  0  0  0
   -1.5594    1.5067   -1.8724 H   0  0  0  0  0  0  0  0  0  0  0  0
   -1.1756    1.8491    1.0502 H   0  0  0  0  0  0  0  0  0  0  0  0
    0.0319    2.3298   -0.3069 H   0  0  0  0  0  0  0  0  0  0  0  0
  1  2  2  0
  2  3  1  0
  3  4  1  0
  4  5  1  0
  5  6  1  0
  6  7  1  0
  7  8  1  0
  8  9  1  0
  7  4  1  0
  9  4  1  0
  2 10  1  0
  3 11  1  0
  3 12  1  0
  5 13  1  0
  5 14  1  0
  6 15  1  0
  6 16  1  0
  7 17  1  0
  8 18  1  0
  8 19  1  0
  9 20  1  0
  9 21  1  0
M  END
