
     RDKit          3D

 18 18  0  0  0  0  0  0  0  0999 V2000
    3.2955   -0.0105   -0.5430 O   0  0  0  0  0  0  0  0  0  0  0  0
    2.7427    0.7306    0.3392 C   0  0  0  0  0  0  0  0  0  0  0  0
    1.3590    0.6279    0.3933 O   0  0  0  0  0  0  0  0  0  0  0  0
    0.5947   -0.2021   -0.4278 C   0  0  0  0  0  0  0  0  0  0  0  0
   -0.1570   -1.1624    0.4729 C   0  0  0  0  0  0  0  0  0  0  0  0
   -1.3520   -0.3805    0.9617 C   0  0  0  0  0  0  0  0  0  0  0  0
   -1.7059    0.5277   -0.1994 C   0  0  0  0  0  0  0  0  0  0  0  0
   -0.5240    0.5389   -1.1250 C   0  0  0  0  0  0  0  0  0  0  0  0
    3.3234    1.3794    0.9831 H   0  0  0  0  0  0  0  0  0  0  0  0
    1.1702   -0.7942   -1.1489 H   0  0  0  0  0  0  0  0  0  0  0  0
   -0.4649   -2.0907   -0.0695 H   0  0  0  0  0  0  0  0  0  0  0  0
    0.5198   -1.4704    1.3089 H   0  0  0  0  0  0  0  0  0  0  0  0
   -1.0797    0.2141    1.8602 H   0  0  0  0  0  0  0  0  0  0  0  0
   -2.1627   -1.1110    1.1582 H   0  0  0  0  0  0  0  0  0  0  0  0
   -1.9410    1.5474    0.1763 H   0  0  0  0  0  0  0  0  0  0  0  0
   -2.6077    0.1020   -0.6911 H   0  0  0  0  0  0  0  0  0  0  0  0
   -0.2074    1.5585   -1.3816 H   0  0  0  0  0  0  0  0  0  0  0  0
   -0.8031   -0.0048   -2.0676 H   0  0  0  0  0  0  0  0  0  0  0  0
  1  2  2  0
  2  3  1  0
  3  4  1  0
  4  5  1  0
  5  6  1  0
  6  7  1  0
  7  8  1  0
  8  4  1  0
  2  9  1  0
  4 10  1  0
  5 11  1  0
  5 12  1  0
  6 13  1  0
  6 14  1  0
  7 15  1  0
  7 16  1  0
  8 17  1  0
  8 18  1  0
M  END
