
     RDKit          3D

 14 14  0  0  0  0  0  0  0  0999 V2000
   -2.8715   -0.6422   -0.8928 O   0  0  0  0  0  0  0  0  0  0  0  0
   -2.4413   -0.7628    0.2833 C   0  0  0  0  0  0  0  0  0  0  0  0
   -1.1637   -0.3977    0.6194 O   0  0  0  0  0  0  0  0  0  0  0  0
   -0.2618    0.1105   -0.2401 C   0  0  0  0  0  0  0  0  0  0  0  0
    0.8699    0.2190    0.6421 C   0  0  0  0  0  0  0  0  0  0  0  0
    1.3595   -0.8465    1.4400 O   0  0  0  0  0  0  0  0  0  0  0  0
    1.1081    0.1788   -0.6901 C   0  0  0  0  0  0  0  0  0  0  0  0
    1.4602    1.3890   -1.3470 O   0  0  0  0  0  0  0  0  0  0  0  0
   -3.1552   -1.1766    1.0103 H   0  0  0  0  0  0  0  0  0  0  0  0
   -0.7296    0.1720   -1.1894 H   0  0  0  0  0  0  0  0  0  0  0  0
    0.9532    1.1804    1.2295 H   0  0  0  0  0  0  0  0  0  0  0  0
    2.3494   -0.8647    1.3307 H   0  0  0  0  0  0  0  0  0  0  0  0
    1.6587   -0.6722   -1.1715 H   0  0  0  0  0  0  0  0  0  0  0  0
    0.8641    2.1129   -1.0245 H   0  0  0  0  0  0  0  0  0  0  0  0
  1  2  2  0
  2  3  1  0
  3  4  1  0
  4  5  1  0
  5  6  1  0
  5  7  1  0
  7  8  1  0
  7  4  1  0
  2  9  1  0
  4 10  1  0
  5 11  1  0
  6 12  1  0
  7 13  1  0
  8 14  1  0
M  END
