
     RDKit          3D

 19 19  0  0  0  0  0  0  0  0999 V2000
    2.9325   -1.4361   -0.5951 O   0  0  0  0  0  0  0  0  0  0  0  0
    2.9577   -0.3975    0.1188 C   0  0  0  0  0  0  0  0  0  0  0  0
    1.7820    0.2609    0.4913 O   0  0  0  0  0  0  0  0  0  0  0  0
    0.5713   -0.2693    0.0462 C   0  0  0  0  0  0  0  0  0  0  0  0
   -0.4255   -0.5411    1.1225 C   0  0  0  0  0  0  0  0  0  0  0  0
   -1.7956   -0.1722    0.5709 C   0  0  0  0  0  0  0  0  0  0  0  0
   -1.5254   -0.0435   -0.9221 C   0  0  0  0  0  0  0  0  0  0  0  0
   -0.1898    0.7117   -0.8409 C   0  0  0  0  0  0  0  0  0  0  0  0
   -0.4383    1.8337   -0.0970 O   0  0  0  0  0  0  0  0  0  0  0  0
    3.9328   -0.0332    0.4343 H   0  0  0  0  0  0  0  0  0  0  0  0
    0.7083   -1.1967   -0.5806 H   0  0  0  0  0  0  0  0  0  0  0  0
   -0.2183    0.0004    2.0729 H   0  0  0  0  0  0  0  0  0  0  0  0
   -0.4714   -1.6430    1.3234 H   0  0  0  0  0  0  0  0  0  0  0  0
   -2.5687   -0.8967    0.8088 H   0  0  0  0  0  0  0  0  0  0  0  0
   -2.0426    0.8744    0.9117 H   0  0  0  0  0  0  0  0  0  0  0  0
   -2.2879    0.5132   -1.4552 H   0  0  0  0  0  0  0  0  0  0  0  0
   -1.2973   -1.0434   -1.2955 H   0  0  0  0  0  0  0  0  0  0  0  0
    0.2683    0.8615   -1.8059 H   0  0  0  0  0  0  0  0  0  0  0  0
    0.1079    2.6169   -0.3083 H   0  0  0  0  0  0  0  0  0  0  0  0
  1  2  2  0
  2  3  1  0
  3  4  1  0
  4  5  1  0
  5  6  1  0
  6  7  1  0
  7  8  1  0
  8  9  1  0
  8  4  1  0
  2 10  1  0
  4 11  1  0
  5 12  1  0
  5 13  1  0
  6 14  1  0
  6 15  1  0
  7 16  1  0
  7 17  1  0
  8 18  1  0
  9 19  1  0
M  END
