
     RDKit          3D

 17 16  0  0  0  0  0  0  0  0999 V2000
    3.1119   -0.5079   -0.8619 O   0  0  0  0  0  0  0  0  0  0  0  0
    2.8067   -0.1832    0.3083 C   0  0  0  0  0  0  0  0  0  0  0  0
    1.4644    0.0959    0.4799 O   0  0  0  0  0  0  0  0  0  0  0  0
    0.5099    0.0380   -0.5077 C   0  0  0  0  0  0  0  0  0  0  0  0
   -0.0029    1.4271   -0.7506 C   0  0  0  0  0  0  0  0  0  0  0  0
    0.4082    2.3752   -0.1383 O   0  0  0  0  0  0  0  0  0  0  0  0
   -0.6611   -0.8505   -0.2890 C   0  0  0  0  0  0  0  0  0  0  0  0
   -1.4848   -0.5248    0.9097 C   0  0  0  0  0  0  0  0  0  0  0  0
   -2.0141    0.7772    0.8401 O   0  0  0  0  0  0  0  0  0  0  0  0
    3.5356   -0.1256    1.1201 H   0  0  0  0  0  0  0  0  0  0  0  0
    1.0023   -0.2688   -1.4556 H   0  0  0  0  0  0  0  0  0  0  0  0
   -0.7621    1.5732   -1.4973 H   0  0  0  0  0  0  0  0  0  0  0  0
   -0.4195   -1.9285   -0.2664 H   0  0  0  0  0  0  0  0  0  0  0  0
   -1.3243   -0.7233   -1.1805 H   0  0  0  0  0  0  0  0  0  0  0  0
   -0.9442   -0.5795    1.8687 H   0  0  0  0  0  0  0  0  0  0  0  0
   -2.3037   -1.2771    0.9716 H   0  0  0  0  0  0  0  0  0  0  0  0
   -2.9224    0.6826    0.4488 H   0  0  0  0  0  0  0  0  0  0  0  0
  1  2  2  0
  2  3  1  0
  3  4  1  0
  4  5  1  0
  5  6  2  0
  4  7  1  0
  7  8  1  0
  8  9  1  0
  2 10  1  0
  4 11  1  0
  5 12  1  0
  7 13  1  0
  7 14  1  0
  8 15  1  0
  8 16  1  0
  9 17  1  0
M  END
