
     RDKit          3D

 17 18  0  0  0  0  0  0  0  0999 V2000
    2.7591    0.1859    0.6637 O   0  0  0  0  0  0  0  0  0  0  0  0
    2.3044    0.6042   -0.4406 C   0  0  0  0  0  0  0  0  0  0  0  0
    1.0444    0.2770   -0.9141 O   0  0  0  0  0  0  0  0  0  0  0  0
    0.2944   -0.5932   -0.0204 C   0  0  0  0  0  0  0  0  0  0  0  0
    0.1627    0.1308    1.2142 C   0  0  0  0  0  0  0  0  0  0  0  0
   -0.8202    1.0179    1.0440 C   0  0  0  0  0  0  0  0  0  0  0  0
   -1.3206    0.8113   -0.3885 C   0  0  0  0  0  0  0  0  0  0  0  0
   -1.2393   -0.6896   -0.3082 C   0  0  0  0  0  0  0  0  0  0  0  0
   -0.3052   -1.6589   -0.6837 C   0  0  0  0  0  0  0  0  0  0  0  0
    2.9935    1.2541   -1.0014 H   0  0  0  0  0  0  0  0  0  0  0  0
    0.7289    0.0297    2.1641 H   0  0  0  0  0  0  0  0  0  0  0  0
   -1.2499    1.7579    1.6898 H   0  0  0  0  0  0  0  0  0  0  0  0
   -2.3600    1.1082   -0.4962 H   0  0  0  0  0  0  0  0  0  0  0  0
   -0.6500    1.2726   -1.1146 H   0  0  0  0  0  0  0  0  0  0  0  0
   -1.9002   -1.0025    0.5620 H   0  0  0  0  0  0  0  0  0  0  0  0
   -0.3026   -2.6722   -0.1882 H   0  0  0  0  0  0  0  0  0  0  0  0
   -0.1394   -1.8333   -1.7820 H   0  0  0  0  0  0  0  0  0  0  0  0
  1  2  2  0
  2  3  1  0
  3  4  1  0
  4  5  1  0
  5  6  2  0
  6  7  1  0
  7  8  1  0
  8  9  1  0
  8  4  1  0
  9  4  1  0
  2 10  1  0
  5 11  1  0
  6 12  1  0
  7 13  1  0
  7 14  1  0
  8 15  1  0
  9 16  1  0
  9 17  1  0
M  END
