
     RDKit          3D

 17 18  0  0  0  0  0  0  0  0999 V2000
    2.8046   -1.1589   -1.4993 O   0  0  0  0  0  0  0  0  0  0  0  0
    2.7882   -0.4480   -0.4602 C   0  0  0  0  0  0  0  0  0  0  0  0
    1.5768   -0.1128    0.1205 O   0  0  0  0  0  0  0  0  0  0  0  0
    0.3223   -0.5306   -0.3951 C   0  0  0  0  0  0  0  0  0  0  0  0
   -0.4501   -1.3229    0.5846 C   0  0  0  0  0  0  0  0  0  0  0  0
   -1.5558   -0.6838    0.9521 C   0  0  0  0  0  0  0  0  0  0  0  0
   -1.7061    0.6109    0.2970 C   0  0  0  0  0  0  0  0  0  0  0  0
   -0.6798    1.6724    0.3515 C   0  0  0  0  0  0  0  0  0  0  0  0
   -0.5462    0.6413   -0.6877 C   0  0  0  0  0  0  0  0  0  0  0  0
    3.7503   -0.1361   -0.0772 H   0  0  0  0  0  0  0  0  0  0  0  0
    0.5592   -1.1442   -1.3088 H   0  0  0  0  0  0  0  0  0  0  0  0
   -0.1101   -2.3063    0.9309 H   0  0  0  0  0  0  0  0  0  0  0  0
   -2.2419   -1.1206    1.6666 H   0  0  0  0  0  0  0  0  0  0  0  0
   -2.7153    0.9170   -0.0779 H   0  0  0  0  0  0  0  0  0  0  0  0
    0.0639    1.6262    1.1902 H   0  0  0  0  0  0  0  0  0  0  0  0
   -0.9985    2.7078    0.1452 H   0  0  0  0  0  0  0  0  0  0  0  0
   -0.8615    0.7887   -1.7325 H   0  0  0  0  0  0  0  0  0  0  0  0
  1  2  2  0
  2  3  1  0
  3  4  1  0
  4  5  1  0
  5  6  2  0
  6  7  1  0
  7  8  1  0
  8  9  1  0
  9  4  1  0
  9  7  1  0
  2 10  1  0
  4 11  1  0
  5 12  1  0
  6 13  1  0
  7 14  1  0
  8 15  1  0
  8 16  1  0
  9 17  1  0
M  END
