
     RDKit          3D

 17 18  0  0  0  0  0  0  0  0999 V2000
    2.8084   -1.5565    0.3114 O   0  0  0  0  0  0  0  0  0  0  0  0
    2.7438   -0.4254    0.8398 C   0  0  0  0  0  0  0  0  0  0  0  0
    1.5254    0.2121    0.7711 O   0  0  0  0  0  0  0  0  0  0  0  0
    0.4596   -0.3974    0.1452 C   0  0  0  0  0  0  0  0  0  0  0  0
   -0.8344   -0.4815    0.9262 C   0  0  0  0  0  0  0  0  0  0  0  0
   -1.1105    0.9273    1.2357 C   0  0  0  0  0  0  0  0  0  0  0  0
   -0.7908    1.5603    0.0758 C   0  0  0  0  0  0  0  0  0  0  0  0
   -0.3741    0.4377   -0.7886 C   0  0  0  0  0  0  0  0  0  0  0  0
   -1.4829   -0.5795   -0.4654 C   0  0  0  0  0  0  0  0  0  0  0  0
    3.5922    0.0284    1.3228 H   0  0  0  0  0  0  0  0  0  0  0  0
    0.6946   -1.3972   -0.2667 H   0  0  0  0  0  0  0  0  0  0  0  0
   -0.9981   -1.2576    1.6106 H   0  0  0  0  0  0  0  0  0  0  0  0
   -1.4780    1.3800    2.1509 H   0  0  0  0  0  0  0  0  0  0  0  0
   -0.8448    2.6286   -0.1186 H   0  0  0  0  0  0  0  0  0  0  0  0
   -0.1011    0.5772   -1.7913 H   0  0  0  0  0  0  0  0  0  0  0  0
   -1.3462   -1.5542   -0.9315 H   0  0  0  0  0  0  0  0  0  0  0  0
   -2.4630   -0.1023   -0.5267 H   0  0  0  0  0  0  0  0  0  0  0  0
  1  2  2  0
  2  3  1  0
  3  4  1  0
  4  5  1  0
  5  6  1  0
  6  7  2  0
  7  8  1  0
  8  9  1  0
  8  4  1  0
  9  5  1  0
  2 10  1  0
  4 11  1  0
  5 12  1  0
  6 13  1  0
  7 14  1  0
  8 15  1  0
  9 16  1  0
  9 17  1  0
M  END
