
     RDKit          3D

 15 17  0  0  0  0  0  0  0  0999 V2000
    2.1120   -1.4637    0.4994 O   0  0  0  0  0  0  0  0  0  0  0  0
    2.4391   -0.2856    0.1986 C   0  0  0  0  0  0  0  0  0  0  0  0
    1.4161    0.6508    0.1508 O   0  0  0  0  0  0  0  0  0  0  0  0
    0.0488    0.2812    0.4338 C   0  0  0  0  0  0  0  0  0  0  0  0
   -0.7628    1.5017    0.2949 C   0  0  0  0  0  0  0  0  0  0  0  0
   -1.0183    0.4555   -0.6868 C   0  0  0  0  0  0  0  0  0  0  0  0
   -1.6899   -0.7699   -0.1142 C   0  0  0  0  0  0  0  0  0  0  0  0
   -1.1444   -1.9756    0.2142 O   0  0  0  0  0  0  0  0  0  0  0  0
   -0.1978   -1.1050    0.0029 C   0  0  0  0  0  0  0  0  0  0  0  0
    3.4685    0.0010   -0.0162 H   0  0  0  0  0  0  0  0  0  0  0  0
   -1.5650    1.6312    1.0832 H   0  0  0  0  0  0  0  0  0  0  0  0
   -0.4333    2.4655   -0.0908 H   0  0  0  0  0  0  0  0  0  0  0  0
   -0.5636    0.4306   -1.6821 H   0  0  0  0  0  0  0  0  0  0  0  0
   -2.3229   -0.5279    0.7657 H   0  0  0  0  0  0  0  0  0  0  0  0
    0.2134   -1.2899   -1.0532 H   0  0  0  0  0  0  0  0  0  0  0  0
  1  2  2  0
  2  3  1  0
  3  4  1  0
  4  5  1  0
  5  6  1  0
  6  7  1  0
  7  8  1  0
  8  9  1  0
  6  4  1  0
  9  7  1  0
  9  4  1  0
  2 10  1  0
  5 11  1  0
  5 12  1  0
  6 13  1  0
  7 14  1  0
  9 15  1  0
M  END
