
     RDKit          3D

 15 16  0  0  0  0  0  0  0  0999 V2000
    2.4988   -1.5565   -0.9467 O   0  0  0  0  0  0  0  0  0  0  0  0
    2.6939   -0.5149   -0.2704 C   0  0  0  0  0  0  0  0  0  0  0  0
    1.5666    0.1653    0.1541 O   0  0  0  0  0  0  0  0  0  0  0  0
    0.2890   -0.3129   -0.1725 C   0  0  0  0  0  0  0  0  0  0  0  0
   -0.5548   -0.6210    0.9905 C   0  0  0  0  0  0  0  0  0  0  0  0
   -1.6679    0.0766    0.9086 C   0  0  0  0  0  0  0  0  0  0  0  0
   -1.6977    0.9184   -0.2986 C   0  0  0  0  0  0  0  0  0  0  0  0
   -1.5952    0.2914   -1.5705 O   0  0  0  0  0  0  0  0  0  0  0  0
   -0.4483    0.7526   -0.9364 C   0  0  0  0  0  0  0  0  0  0  0  0
    3.6631   -0.1268   -0.0062 H   0  0  0  0  0  0  0  0  0  0  0  0
    0.3353   -1.2539   -0.7805 H   0  0  0  0  0  0  0  0  0  0  0  0
   -0.2939   -1.3077    1.7757 H   0  0  0  0  0  0  0  0  0  0  0  0
   -2.5175    0.0744    1.6286 H   0  0  0  0  0  0  0  0  0  0  0  0
   -2.3728    1.7950   -0.3420 H   0  0  0  0  0  0  0  0  0  0  0  0
    0.1012    1.6202   -1.3415 H   0  0  0  0  0  0  0  0  0  0  0  0
  1  2  2  0
  2  3  1  0
  3  4  1  0
  4  5  1  0
  5  6  2  0
  6  7  1  0
  7  8  1  0
  8  9  1  0
  9  4  1  0
  9  7  1  0
  2 10  1  0
  4 11  1  0
  5 12  1  0
  6 13  1  0
  7 14  1  0
  9 15  1  0
M  END
