
     RDKit          3D

 19 19  0  0  0  0  0  0  0  0999 V2000
    2.4901    1.1976   -0.7356 O   0  0  0  0  0  0  0  0  0  0  0  0
    2.7258   -0.0131   -0.9282 C   0  0  0  0  0  0  0  0  0  0  0  0
    2.0909   -0.9521   -0.1512 O   0  0  0  0  0  0  0  0  0  0  0  0
    1.1836   -0.5674    0.8462 C   0  0  0  0  0  0  0  0  0  0  0  0
    0.0369    0.1478    0.2235 C   0  0  0  0  0  0  0  0  0  0  0  0
   -0.7189   -0.6727   -0.7786 C   0  0  0  0  0  0  0  0  0  0  0  0
   -1.9381    0.1546   -0.9501 C   0  0  0  0  0  0  0  0  0  0  0  0
   -2.1642    0.7875    0.1888 C   0  0  0  0  0  0  0  0  0  0  0  0
   -1.1015    0.4207    1.2005 C   0  0  0  0  0  0  0  0  0  0  0  0
    3.4391   -0.2834   -1.7198 H   0  0  0  0  0  0  0  0  0  0  0  0
    1.7396    0.0969    1.5416 H   0  0  0  0  0  0  0  0  0  0  0  0
    0.8567   -1.4905    1.3753 H   0  0  0  0  0  0  0  0  0  0  0  0
    0.2751    1.1313   -0.2095 H   0  0  0  0  0  0  0  0  0  0  0  0
   -0.1722   -0.8330   -1.7223 H   0  0  0  0  0  0  0  0  0  0  0  0
   -1.0174   -1.6145   -0.2827 H   0  0  0  0  0  0  0  0  0  0  0  0
   -2.5084    0.1968   -1.8723 H   0  0  0  0  0  0  0  0  0  0  0  0
   -2.9771    1.4566    0.3633 H   0  0  0  0  0  0  0  0  0  0  0  0
   -0.8500    1.2905    1.8317 H   0  0  0  0  0  0  0  0  0  0  0  0
   -1.3898   -0.4536    1.7795 H   0  0  0  0  0  0  0  0  0  0  0  0
  1  2  2  0
  2  3  1  0
  3  4  1  0
  4  5  1  0
  5  6  1  0
  6  7  1  0
  7  8  2  0
  8  9  1  0
  9  5  1  0
  2 10  1  0
  4 11  1  0
  4 12  1  0
  5 13  1  0
  6 14  1  0
  6 15  1  0
  7 16  1  0
  8 17  1  0
  9 18  1  0
  9 19  1  0
M  END
