
     RDKit          3D

 17 18  0  0  0  0  0  0  0  0999 V2000
    2.5070   -1.4368    0.6895 O   0  0  0  0  0  0  0  0  0  0  0  0
    2.6468   -0.5029   -0.1406 C   0  0  0  0  0  0  0  0  0  0  0  0
    1.5468    0.2857   -0.4157 O   0  0  0  0  0  0  0  0  0  0  0  0
    0.2924    0.0818    0.1934 C   0  0  0  0  0  0  0  0  0  0  0  0
   -0.4315   -1.2186    0.0255 C   0  0  0  0  0  0  0  0  0  0  0  0
   -1.7845   -0.9282   -0.1167 O   0  0  0  0  0  0  0  0  0  0  0  0
   -1.7911    0.2836   -0.7986 C   0  0  0  0  0  0  0  0  0  0  0  0
   -0.7493    1.1531   -0.1981 C   0  0  0  0  0  0  0  0  0  0  0  0
   -0.2531    1.0112    1.1799 C   0  0  0  0  0  0  0  0  0  0  0  0
    3.5791   -0.2893   -0.6451 H   0  0  0  0  0  0  0  0  0  0  0  0
   -0.0449   -1.8521   -0.7886 H   0  0  0  0  0  0  0  0  0  0  0  0
   -0.3588   -1.7827    0.9909 H   0  0  0  0  0  0  0  0  0  0  0  0
   -1.4926    0.0543   -1.8467 H   0  0  0  0  0  0  0  0  0  0  0  0
   -2.7916    0.7387   -0.8524 H   0  0  0  0  0  0  0  0  0  0  0  0
   -0.4174    1.9977   -0.8080 H   0  0  0  0  0  0  0  0  0  0  0  0
    0.4086    1.8266    1.5378 H   0  0  0  0  0  0  0  0  0  0  0  0
   -0.8659    0.5779    1.9936 H   0  0  0  0  0  0  0  0  0  0  0  0
  1  2  2  0
  2  3  1  0
  3  4  1  0
  4  5  1  0
  5  6  1  0
  6  7  1  0
  7  8  1  0
  8  9  1  0
  8  4  1  0
  9  4  1  0
  2 10  1  0
  5 11  1  0
  5 12  1  0
  7 13  1  0
  7 14  1  0
  8 15  1  0
  9 16  1  0
  9 17  1  0
M  END
