
     RDKit          3D

 15 15  0  0  0  0  0  0  0  0999 V2000
    2.9509   -0.2832    0.7141 O   0  0  0  0  0  0  0  0  0  0  0  0
    2.5943    0.4527   -0.2366 C   0  0  0  0  0  0  0  0  0  0  0  0
    1.2529    0.5059   -0.5433 O   0  0  0  0  0  0  0  0  0  0  0  0
    0.3296   -0.2567    0.2079 C   0  0  0  0  0  0  0  0  0  0  0  0
   -0.6872   -1.0180   -0.6476 C   0  0  0  0  0  0  0  0  0  0  0  0
   -1.7015   -0.6377    0.3608 C   0  0  0  0  0  0  0  0  0  0  0  0
   -2.7333   -1.1060    0.7738 O   0  0  0  0  0  0  0  0  0  0  0  0
   -0.8828    0.5687    0.6314 C   0  0  0  0  0  0  0  0  0  0  0  0
   -1.0562    1.6005   -0.3057 O   0  0  0  0  0  0  0  0  0  0  0  0
    3.3592    0.9994   -0.7566 H   0  0  0  0  0  0  0  0  0  0  0  0
    0.7670   -0.8631    1.0173 H   0  0  0  0  0  0  0  0  0  0  0  0
   -0.4806   -2.0926   -0.7445 H   0  0  0  0  0  0  0  0  0  0  0  0
   -0.8593   -0.5158   -1.6073 H   0  0  0  0  0  0  0  0  0  0  0  0
   -0.8591    0.9092    1.6837 H   0  0  0  0  0  0  0  0  0  0  0  0
   -1.9940    1.7366   -0.5473 H   0  0  0  0  0  0  0  0  0  0  0  0
  1  2  2  0
  2  3  1  0
  3  4  1  0
  4  5  1  0
  5  6  1  0
  6  7  2  0
  6  8  1  0
  8  9  1  0
  8  4  1  0
  2 10  1  0
  4 11  1  0
  5 12  1  0
  5 13  1  0
  8 14  1  0
  9 15  1  0
M  END
