
     RDKit          3D

 17 17  0  0  0  0  0  0  0  0999 V2000
    2.9101   -0.6534   -1.2304 O   0  0  0  0  0  0  0  0  0  0  0  0
    2.7131    0.3758   -0.5702 C   0  0  0  0  0  0  0  0  0  0  0  0
    1.4298    0.5832   -0.0944 O   0  0  0  0  0  0  0  0  0  0  0  0
    0.3540   -0.3035   -0.3200 C   0  0  0  0  0  0  0  0  0  0  0  0
   -0.7678    0.3019   -1.0990 C   0  0  0  0  0  0  0  0  0  0  0  0
   -1.6633    1.0261   -0.3599 O   0  0  0  0  0  0  0  0  0  0  0  0
   -1.9213    0.5708    0.8972 C   0  0  0  0  0  0  0  0  0  0  0  0
   -1.5058   -0.7161    1.1533 O   0  0  0  0  0  0  0  0  0  0  0  0
   -0.1551   -0.9171    0.9648 C   0  0  0  0  0  0  0  0  0  0  0  0
    3.5234    1.0530   -0.3947 H   0  0  0  0  0  0  0  0  0  0  0  0
    0.7736   -1.1362   -0.9259 H   0  0  0  0  0  0  0  0  0  0  0  0
   -1.3184   -0.4998   -1.6526 H   0  0  0  0  0  0  0  0  0  0  0  0
   -0.3592    0.9703   -1.8945 H   0  0  0  0  0  0  0  0  0  0  0  0
   -1.4758    1.2603    1.6608 H   0  0  0  0  0  0  0  0  0  0  0  0
   -3.0160    0.6117    1.0777 H   0  0  0  0  0  0  0  0  0  0  0  0
    0.0072   -2.0221    1.0008 H   0  0  0  0  0  0  0  0  0  0  0  0
    0.4714   -0.5048    1.7870 H   0  0  0  0  0  0  0  0  0  0  0  0
  1  2  2  0
  2  3  1  0
  3  4  1  0
  4  5  1  0
  5  6  1  0
  6  7  1  0
  7  8  1  0
  8  9  1  0
  9  4  1  0
  2 10  1  0
  4 11  1  0
  5 12  1  0
  5 13  1  0
  7 14  1  0
  7 15  1  0
  9 16  1  0
  9 17  1  0
M  END
