
     RDKit          3D

 17 18  0  0  0  0  0  0  0  0999 V2000
    3.2720    0.9287   -0.3333 O   0  0  0  0  0  0  0  0  0  0  0  0
    2.9340   -0.0879    0.3419 C   0  0  0  0  0  0  0  0  0  0  0  0
    1.6271   -0.5527    0.3276 O   0  0  0  0  0  0  0  0  0  0  0  0
    0.6704    0.1208   -0.4507 C   0  0  0  0  0  0  0  0  0  0  0  0
   -0.3323   -0.7179   -1.2464 C   0  0  0  0  0  0  0  0  0  0  0  0
   -0.7106    0.0288   -0.0683 C   0  0  0  0  0  0  0  0  0  0  0  0
   -1.7074    1.0909    0.0413 C   0  0  0  0  0  0  0  0  0  0  0  0
   -2.3805    0.2926    0.9763 O   0  0  0  0  0  0  0  0  0  0  0  0
   -1.2945   -0.5795    1.1300 C   0  0  0  0  0  0  0  0  0  0  0  0
    3.7093   -0.5693    0.9240 H   0  0  0  0  0  0  0  0  0  0  0  0
    1.0163    1.0043   -1.0228 H   0  0  0  0  0  0  0  0  0  0  0  0
   -0.6185   -0.3984   -2.2583 H   0  0  0  0  0  0  0  0  0  0  0  0
   -0.2177   -1.8164   -1.1537 H   0  0  0  0  0  0  0  0  0  0  0  0
   -2.3119    1.3523   -0.8602 H   0  0  0  0  0  0  0  0  0  0  0  0
   -1.3237    1.9961    0.5943 H   0  0  0  0  0  0  0  0  0  0  0  0
   -0.7764   -0.4333    2.1009 H   0  0  0  0  0  0  0  0  0  0  0  0
   -1.5558   -1.6589    0.9573 H   0  0  0  0  0  0  0  0  0  0  0  0
  1  2  2  0
  2  3  1  0
  3  4  1  0
  4  5  1  0
  5  6  1  0
  6  7  1  0
  7  8  1  0
  8  9  1  0
  6  4  1  0
  9  6  1  0
  2 10  1  0
  4 11  1  0
  5 12  1  0
  5 13  1  0
  7 14  1  0
  7 15  1  0
  9 16  1  0
  9 17  1  0
M  END
