
     RDKit          3D

 19 19  0  0  0  0  0  0  0  0999 V2000
    1.7035   -2.3366    0.6456 O   0  0  0  0  0  0  0  0  0  0  0  0
    1.9519   -1.7240   -0.4095 C   0  0  0  0  0  0  0  0  0  0  0  0
    1.3200   -0.5098   -0.6120 O   0  0  0  0  0  0  0  0  0  0  0  0
    0.4179    0.0389    0.3326 C   0  0  0  0  0  0  0  0  0  0  0  0
    1.0009    1.3709    0.8291 C   0  0  0  0  0  0  0  0  0  0  0  0
    1.1319    2.1939   -0.2917 O   0  0  0  0  0  0  0  0  0  0  0  0
   -0.9185    0.3268   -0.3015 C   0  0  0  0  0  0  0  0  0  0  0  0
   -1.5922   -0.9342   -0.8847 C   0  0  0  0  0  0  0  0  0  0  0  0
   -2.1823   -0.1610    0.2248 C   0  0  0  0  0  0  0  0  0  0  0  0
    2.6283   -2.0836   -1.1718 H   0  0  0  0  0  0  0  0  0  0  0  0
    0.2835   -0.5878    1.2109 H   0  0  0  0  0  0  0  0  0  0  0  0
    1.9919    1.1960    1.2829 H   0  0  0  0  0  0  0  0  0  0  0  0
    0.2947    1.8551    1.5289 H   0  0  0  0  0  0  0  0  0  0  0  0
    1.3377    3.1267   -0.0598 H   0  0  0  0  0  0  0  0  0  0  0  0
   -0.9213    1.2341   -0.9446 H   0  0  0  0  0  0  0  0  0  0  0  0
   -1.9009   -0.8329   -1.9304 H   0  0  0  0  0  0  0  0  0  0  0  0
   -1.1630   -1.9117   -0.6287 H   0  0  0  0  0  0  0  0  0  0  0  0
   -3.1014    0.4092   -0.0349 H   0  0  0  0  0  0  0  0  0  0  0  0
   -2.2825   -0.6700    1.2147 H   0  0  0  0  0  0  0  0  0  0  0  0
  1  2  2  0
  2  3  1  0
  3  4  1  0
  4  5  1  0
  5  6  1  0
  4  7  1  0
  7  8  1  0
  8  9  1  0
  9  7  1  0
  2 10  1  0
  4 11  1  0
  5 12  1  0
  5 13  1  0
  6 14  1  0
  7 15  1  0
  8 16  1  0
  8 17  1  0
  9 18  1  0
  9 19  1  0
M  END
