
     RDKit          3D

 14 14  0  0  0  0  0  0  0  0999 V2000
    1.8746   -1.4968   -0.4074 O   0  0  0  0  0  0  0  0  0  0  0  0
    2.1679   -0.2970   -0.4469 C   0  0  0  0  0  0  0  0  0  0  0  0
    1.1915    0.6169   -0.1963 O   0  0  0  0  0  0  0  0  0  0  0  0
   -0.1459    0.4074    0.1066 C   0  0  0  0  0  0  0  0  0  0  0  0
   -0.8704    1.7050    0.3355 C   0  0  0  0  0  0  0  0  0  0  0  0
   -0.2104    2.6812    0.6011 O   0  0  0  0  0  0  0  0  0  0  0  0
   -0.8407   -0.6621   -0.6540 C   0  0  0  0  0  0  0  0  0  0  0  0
   -0.6805   -0.7575    0.8143 C   0  0  0  0  0  0  0  0  0  0  0  0
    3.1988    0.0189   -0.6802 H   0  0  0  0  0  0  0  0  0  0  0  0
   -1.9406    1.7839    0.2699 H   0  0  0  0  0  0  0  0  0  0  0  0
   -0.2374   -1.3380   -1.2751 H   0  0  0  0  0  0  0  0  0  0  0  0
   -1.8470   -0.4823   -1.1015 H   0  0  0  0  0  0  0  0  0  0  0  0
   -0.0465   -1.5628    1.2364 H   0  0  0  0  0  0  0  0  0  0  0  0
   -1.6133   -0.6167    1.3977 H   0  0  0  0  0  0  0  0  0  0  0  0
  1  2  2  0
  2  3  1  0
  3  4  1  0
  4  5  1  0
  5  6  2  0
  4  7  1  0
  7  8  1  0
  8  4  1  0
  2  9  1  0
  5 10  1  0
  7 11  1  0
  7 12  1  0
  8 13  1  0
  8 14  1  0
M  END
