
     RDKit          3D

 15 15  0  0  0  0  0  0  0  0999 V2000
    2.9906   -1.0246    0.1876 O   0  0  0  0  0  0  0  0  0  0  0  0
    2.5214   -0.1131    0.9110 C   0  0  0  0  0  0  0  0  0  0  0  0
    1.2011    0.2984    0.7093 O   0  0  0  0  0  0  0  0  0  0  0  0
    0.4602   -0.3298   -0.2964 C   0  0  0  0  0  0  0  0  0  0  0  0
   -0.1985    0.6572   -1.2224 C   0  0  0  0  0  0  0  0  0  0  0  0
   -1.4364    0.9164   -0.8343 C   0  0  0  0  0  0  0  0  0  0  0  0
   -1.7516    0.1411    0.3878 C   0  0  0  0  0  0  0  0  0  0  0  0
   -0.7492   -0.9485    0.3685 C   0  0  0  0  0  0  0  0  0  0  0  0
   -0.8695   -2.0664    0.7850 O   0  0  0  0  0  0  0  0  0  0  0  0
    3.1231    0.3646    1.6940 H   0  0  0  0  0  0  0  0  0  0  0  0
    1.0064   -1.1082   -0.8447 H   0  0  0  0  0  0  0  0  0  0  0  0
    0.2662    1.1181   -2.1127 H   0  0  0  0  0  0  0  0  0  0  0  0
   -2.1127    1.6118   -1.3617 H   0  0  0  0  0  0  0  0  0  0  0  0
   -2.7706   -0.2923    0.3378 H   0  0  0  0  0  0  0  0  0  0  0  0
   -1.6805    0.7753    1.2913 H   0  0  0  0  0  0  0  0  0  0  0  0
  1  2  2  0
  2  3  1  0
  3  4  1  0
  4  5  1  0
  5  6  2  0
  6  7  1  0
  7  8  1  0
  8  9  2  0
  8  4  1  0
  2 10  1  0
  4 11  1  0
  5 12  1  0
  6 13  1  0
  7 14  1  0
  7 15  1  0
M  END
