
     RDKit          3D

 19 20  0  0  0  0  0  0  0  0999 V2000
    2.9664    0.0014   -0.8660 O   0  0  0  0  0  0  0  0  0  0  0  0
    2.8873    0.9826   -0.1152 C   0  0  0  0  0  0  0  0  0  0  0  0
    1.9491    1.0146    0.8776 O   0  0  0  0  0  0  0  0  0  0  0  0
    1.0081    0.0001    1.1540 C   0  0  0  0  0  0  0  0  0  0  0  0
    0.1317   -0.1711   -0.0295 C   0  0  0  0  0  0  0  0  0  0  0  0
   -0.9477   -1.1671   -0.0385 C   0  0  0  0  0  0  0  0  0  0  0  0
   -1.7220   -0.2579    0.8612 C   0  0  0  0  0  0  0  0  0  0  0  0
   -1.1078    0.6775   -0.1144 C   0  0  0  0  0  0  0  0  0  0  0  0
   -1.5372   -0.3208   -1.1642 C   0  0  0  0  0  0  0  0  0  0  0  0
    3.5656    1.8191   -0.2471 H   0  0  0  0  0  0  0  0  0  0  0  0
    0.4554    0.3449    2.0678 H   0  0  0  0  0  0  0  0  0  0  0  0
    1.6001   -0.9131    1.3896 H   0  0  0  0  0  0  0  0  0  0  0  0
    0.6891   -0.1927   -1.0099 H   0  0  0  0  0  0  0  0  0  0  0  0
   -0.9255   -2.1652   -0.0309 H   0  0  0  0  0  0  0  0  0  0  0  0
   -1.4595   -0.2081    1.9143 H   0  0  0  0  0  0  0  0  0  0  0  0
   -2.8328   -0.4166    0.7080 H   0  0  0  0  0  0  0  0  0  0  0  0
   -1.1630    1.6703   -0.1734 H   0  0  0  0  0  0  0  0  0  0  0  0
   -2.6158   -0.3944   -1.2900 H   0  0  0  0  0  0  0  0  0  0  0  0
   -0.9417   -0.3033   -2.0870 H   0  0  0  0  0  0  0  0  0  0  0  0
  1  2  2  0
  2  3  1  0
  3  4  1  0
  4  5  1  0
  5  6  1  0
  6  7  1  0
  7  8  1  0
  8  9  1  0
  8  5  1  0
  9  6  1  0
  2 10  1  0
  4 11  1  0
  4 12  1  0
  5 13  1  0
  6 14  1  0
  7 15  1  0
  7 16  1  0
  8 17  1  0
  9 18  1  0
  9 19  1  0
M  END
