
     RDKit          3D

 17 17  0  0  0  0  0  0  0  0999 V2000
    3.3485   -0.2304    1.2912 O   0  0  0  0  0  0  0  0  0  0  0  0
    3.1841   -0.0680    0.0384 C   0  0  0  0  0  0  0  0  0  0  0  0
    1.9060   -0.1928   -0.5308 O   0  0  0  0  0  0  0  0  0  0  0  0
    0.8570   -0.5022    0.3708 C   0  0  0  0  0  0  0  0  0  0  0  0
   -0.4613   -0.6125   -0.3393 C   0  0  0  0  0  0  0  0  0  0  0  0
   -1.4676   -0.9209    0.6021 O   0  0  0  0  0  0  0  0  0  0  0  0
   -2.3503   -0.2235   -0.2534 C   0  0  0  0  0  0  0  0  0  0  0  0
   -1.1806    0.6863   -0.5832 C   0  0  0  0  0  0  0  0  0  0  0  0
   -0.8621    1.6075    0.3952 O   0  0  0  0  0  0  0  0  0  0  0  0
    4.0563    0.1618   -0.5301 H   0  0  0  0  0  0  0  0  0  0  0  0
    1.1199   -1.4832    0.8343 H   0  0  0  0  0  0  0  0  0  0  0  0
    0.8268    0.3179    1.1183 H   0  0  0  0  0  0  0  0  0  0  0  0
   -0.4734   -1.3406   -1.1508 H   0  0  0  0  0  0  0  0  0  0  0  0
   -3.1956    0.2473    0.2571 H   0  0  0  0  0  0  0  0  0  0  0  0
   -2.5944   -0.8526   -1.1185 H   0  0  0  0  0  0  0  0  0  0  0  0
   -1.2264    1.0377   -1.6113 H   0  0  0  0  0  0  0  0  0  0  0  0
   -1.4869    2.3683    0.4456 H   0  0  0  0  0  0  0  0  0  0  0  0
  1  2  2  0
  2  3  1  0
  3  4  1  0
  4  5  1  0
  5  6  1  0
  6  7  1  0
  7  8  1  0
  8  9  1  0
  8  5  1  0
  2 10  1  0
  4 11  1  0
  4 12  1  0
  5 13  1  0
  7 14  1  0
  7 15  1  0
  8 16  1  0
  9 17  1  0
M  END
