
     RDKit          3D

 13 13  0  0  0  0  0  0  0  0999 V2000
    2.4721    0.7477    0.8102 O   0  0  0  0  0  0  0  0  0  0  0  0
    2.3809   -0.0884   -0.1434 C   0  0  0  0  0  0  0  0  0  0  0  0
    1.0916   -0.3926   -0.5552 O   0  0  0  0  0  0  0  0  0  0  0  0
   -0.0711    0.1382   -0.0129 C   0  0  0  0  0  0  0  0  0  0  0  0
   -1.0747    0.7007   -1.0034 C   0  0  0  0  0  0  0  0  0  0  0  0
   -2.0719    0.2719   -0.0992 O   0  0  0  0  0  0  0  0  0  0  0  0
   -1.2298   -0.8219    0.1546 C   0  0  0  0  0  0  0  0  0  0  0  0
    3.2715   -0.5176   -0.5843 H   0  0  0  0  0  0  0  0  0  0  0  0
    0.0553    0.8645    0.8177 H   0  0  0  0  0  0  0  0  0  0  0  0
   -1.1887    0.1014   -1.9275 H   0  0  0  0  0  0  0  0  0  0  0  0
   -1.0508    1.7928   -1.1198 H   0  0  0  0  0  0  0  0  0  0  0  0
   -1.3544   -1.2618    1.1455 H   0  0  0  0  0  0  0  0  0  0  0  0
   -1.2301   -1.5348   -0.6962 H   0  0  0  0  0  0  0  0  0  0  0  0
  1  2  2  0
  2  3  1  0
  3  4  1  0
  4  5  1  0
  5  6  1  0
  6  7  1  0
  7  4  1  0
  2  8  1  0
  4  9  1  0
  5 10  1  0
  5 11  1  0
  7 12  1  0
  7 13  1  0
M  END
