
     RDKit          3D

 15 14  0  0  0  0  0  0  0  0999 V2000
    3.2911   -0.7150   -0.8975 O   0  0  0  0  0  0  0  0  0  0  0  0
    3.0595   -0.7285    0.3398 C   0  0  0  0  0  0  0  0  0  0  0  0
    1.7609   -0.4474    0.7397 O   0  0  0  0  0  0  0  0  0  0  0  0
    0.7740   -0.1640   -0.2352 C   0  0  0  0  0  0  0  0  0  0  0  0
   -0.5179    0.0963    0.5183 C   0  0  0  0  0  0  0  0  0  0  0  0
   -1.6341    0.4068   -0.4000 C   0  0  0  0  0  0  0  0  0  0  0  0
   -1.4142    0.4227   -1.6316 O   0  0  0  0  0  0  0  0  0  0  0  0
   -2.9376    0.6807    0.1522 C   0  0  0  0  0  0  0  0  0  0  0  0
   -3.1503    0.6631    1.3827 O   0  0  0  0  0  0  0  0  0  0  0  0
    3.8542   -0.9536    1.0676 H   0  0  0  0  0  0  0  0  0  0  0  0
    0.6286   -0.9886   -0.9478 H   0  0  0  0  0  0  0  0  0  0  0  0
    1.0719    0.7263   -0.8457 H   0  0  0  0  0  0  0  0  0  0  0  0
   -0.3109    0.9087    1.2419 H   0  0  0  0  0  0  0  0  0  0  0  0
   -0.7246   -0.8140    1.1159 H   0  0  0  0  0  0  0  0  0  0  0  0
   -3.7506    0.9065   -0.5117 H   0  0  0  0  0  0  0  0  0  0  0  0
  1  2  2  0
  2  3  1  0
  3  4  1  0
  4  5  1  0
  5  6  1  0
  6  7  2  0
  6  8  1  0
  8  9  2  0
  2 10  1  0
  4 11  1  0
  4 12  1  0
  5 13  1  0
  5 14  1  0
  8 15  1  0
M  END
