
     RDKit          3D

 19 19  0  0  0  0  0  0  0  0999 V2000
    3.0935   -0.9580   -0.8025 O   0  0  0  0  0  0  0  0  0  0  0  0
    3.5502   -0.8210    0.3592 C   0  0  0  0  0  0  0  0  0  0  0  0
    2.8629    0.0142    1.2237 O   0  0  0  0  0  0  0  0  0  0  0  0
    1.6871    0.7063    0.8559 C   0  0  0  0  0  0  0  0  0  0  0  0
    0.5684   -0.2049    0.4455 C   0  0  0  0  0  0  0  0  0  0  0  0
   -0.5477    0.5507    0.1005 O   0  0  0  0  0  0  0  0  0  0  0  0
   -1.5689   -0.3075   -0.2750 C   0  0  0  0  0  0  0  0  0  0  0  0
   -3.0022    0.1590   -0.0947 C   0  0  0  0  0  0  0  0  0  0  0  0
   -2.4132    0.2194   -1.4475 C   0  0  0  0  0  0  0  0  0  0  0  0
    4.4647   -1.3456    0.6812 H   0  0  0  0  0  0  0  0  0  0  0  0
    1.8664    1.4056    0.0056 H   0  0  0  0  0  0  0  0  0  0  0  0
    1.3486    1.2544    1.7591 H   0  0  0  0  0  0  0  0  0  0  0  0
    0.3106   -0.8753    1.3028 H   0  0  0  0  0  0  0  0  0  0  0  0
    0.7971   -0.8422   -0.4259 H   0  0  0  0  0  0  0  0  0  0  0  0
   -1.3541   -1.3754   -0.2443 H   0  0  0  0  0  0  0  0  0  0  0  0
   -3.6889   -0.6436    0.2086 H   0  0  0  0  0  0  0  0  0  0  0  0
   -3.1873    1.1226    0.4159 H   0  0  0  0  0  0  0  0  0  0  0  0
   -2.6299   -0.5482   -2.2095 H   0  0  0  0  0  0  0  0  0  0  0  0
   -2.1574    1.2184   -1.8586 H   0  0  0  0  0  0  0  0  0  0  0  0
  1  2  2  0
  2  3  1  0
  3  4  1  0
  4  5  1  0
  5  6  1  0
  6  7  1  0
  7  8  1  0
  8  9  1  0
  9  7  1  0
  2 10  1  0
  4 11  1  0
  4 12  1  0
  5 13  1  0
  5 14  1  0
  7 15  1  0
  8 16  1  0
  8 17  1  0
  9 18  1  0
  9 19  1  0
M  END
