
     RDKit          3D

 17 18  0  0  0  0  0  0  0  0999 V2000
    2.6443   -0.9748   -0.2657 O   0  0  0  0  0  0  0  0  0  0  0  0
    2.5215   -0.4204    0.8553 C   0  0  0  0  0  0  0  0  0  0  0  0
    1.2712    0.0661    1.1890 O   0  0  0  0  0  0  0  0  0  0  0  0
    0.1904   -0.0066    0.4180 C   0  0  0  0  0  0  0  0  0  0  0  0
   -0.3925   -1.2823   -0.0487 C   0  0  0  0  0  0  0  0  0  0  0  0
   -1.4410   -0.8838   -0.7672 C   0  0  0  0  0  0  0  0  0  0  0  0
   -1.3851    0.5811   -0.6684 C   0  0  0  0  0  0  0  0  0  0  0  0
    0.1199    0.8164   -0.8786 C   0  0  0  0  0  0  0  0  0  0  0  0
   -1.0708    0.7702    0.8036 C   0  0  0  0  0  0  0  0  0  0  0  0
    3.3837   -0.3330    1.5335 H   0  0  0  0  0  0  0  0  0  0  0  0
    0.0034   -2.2589    0.1854 H   0  0  0  0  0  0  0  0  0  0  0  0
   -2.1854   -1.4425   -1.3117 H   0  0  0  0  0  0  0  0  0  0  0  0
   -2.0656    1.2118   -1.1528 H   0  0  0  0  0  0  0  0  0  0  0  0
    0.4238    1.8534   -0.7787 H   0  0  0  0  0  0  0  0  0  0  0  0
    0.5475    0.2382   -1.7205 H   0  0  0  0  0  0  0  0  0  0  0  0
   -0.8434    1.8176    1.1016 H   0  0  0  0  0  0  0  0  0  0  0  0
   -1.7219    0.2478    1.5060 H   0  0  0  0  0  0  0  0  0  0  0  0
  1  2  2  0
  2  3  1  0
  3  4  1  0
  4  5  1  0
  5  6  2  0
  6  7  1  0
  7  8  1  0
  7  9  1  0
  8  4  1  0
  9  4  1  0
  2 10  1  0
  5 11  1  0
  6 12  1  0
  7 13  1  0
  8 14  1  0
  8 15  1  0
  9 16  1  0
  9 17  1  0
M  END
