
     RDKit          3D

 19 20  0  0  0  0  0  0  0  0999 V2000
    2.2647    2.3164   -0.4345 O   0  0  0  0  0  0  0  0  0  0  0  0
    2.3014    1.6840    0.6530 C   0  0  0  0  0  0  0  0  0  0  0  0
    1.5141    0.5711    0.7856 O   0  0  0  0  0  0  0  0  0  0  0  0
    0.6811    0.1468   -0.2777 C   0  0  0  0  0  0  0  0  0  0  0  0
    0.9089   -1.3209   -0.6693 C   0  0  0  0  0  0  0  0  0  0  0  0
   -0.4327   -1.6792   -0.0121 C   0  0  0  0  0  0  0  0  0  0  0  0
   -0.7075   -0.2166    0.0494 C   0  0  0  0  0  0  0  0  0  0  0  0
   -1.8759    0.4176   -0.5763 C   0  0  0  0  0  0  0  0  0  0  0  0
   -1.5987    0.4399    0.9631 C   0  0  0  0  0  0  0  0  0  0  0  0
    2.9658    2.0764    1.4151 H   0  0  0  0  0  0  0  0  0  0  0  0
    0.7570    0.8065   -1.1735 H   0  0  0  0  0  0  0  0  0  0  0  0
    1.7847   -1.7102   -0.1403 H   0  0  0  0  0  0  0  0  0  0  0  0
    0.8838   -1.4829   -1.7541 H   0  0  0  0  0  0  0  0  0  0  0  0
   -1.1220   -2.2268   -0.6833 H   0  0  0  0  0  0  0  0  0  0  0  0
   -0.2422   -2.2002    0.9386 H   0  0  0  0  0  0  0  0  0  0  0  0
   -2.6853   -0.2581   -0.9052 H   0  0  0  0  0  0  0  0  0  0  0  0
   -1.6915    1.3556   -1.1142 H   0  0  0  0  0  0  0  0  0  0  0  0
   -2.3475   -0.1588    1.5609 H   0  0  0  0  0  0  0  0  0  0  0  0
   -1.3583    1.4396    1.3747 H   0  0  0  0  0  0  0  0  0  0  0  0
  1  2  2  0
  2  3  1  0
  3  4  1  0
  4  5  1  0
  5  6  1  0
  6  7  1  0
  7  8  1  0
  8  9  1  0
  7  4  1  0
  9  7  1  0
  2 10  1  0
  4 11  1  0
  5 12  1  0
  5 13  1  0
  6 14  1  0
  6 15  1  0
  8 16  1  0
  8 17  1  0
  9 18  1  0
  9 19  1  0
M  END
