
     RDKit          3D

 15 15  0  0  0  0  0  0  0  0999 V2000
    2.4564   -0.6259    1.3640 O   0  0  0  0  0  0  0  0  0  0  0  0
    2.5728    0.3544    0.6021 C   0  0  0  0  0  0  0  0  0  0  0  0
    1.6461    0.5308   -0.4038 O   0  0  0  0  0  0  0  0  0  0  0  0
    0.5493   -0.3159   -0.6557 C   0  0  0  0  0  0  0  0  0  0  0  0
   -0.3391   -0.3222    0.5597 C   0  0  0  0  0  0  0  0  0  0  0  0
   -0.7710    0.9965    0.7960 O   0  0  0  0  0  0  0  0  0  0  0  0
   -1.8976    0.6997    0.0151 C   0  0  0  0  0  0  0  0  0  0  0  0
   -1.7286   -0.7242    0.3243 C   0  0  0  0  0  0  0  0  0  0  0  0
   -2.3602   -1.7426    0.3765 O   0  0  0  0  0  0  0  0  0  0  0  0
    3.3795    1.0831    0.6959 H   0  0  0  0  0  0  0  0  0  0  0  0
    0.0381    0.0607   -1.5562 H   0  0  0  0  0  0  0  0  0  0  0  0
    0.9060   -1.3555   -0.9145 H   0  0  0  0  0  0  0  0  0  0  0  0
    0.1534   -0.7514    1.4408 H   0  0  0  0  0  0  0  0  0  0  0  0
   -1.7803    0.9257   -1.0611 H   0  0  0  0  0  0  0  0  0  0  0  0
   -2.8247    1.1868    0.3877 H   0  0  0  0  0  0  0  0  0  0  0  0
  1  2  2  0
  2  3  1  0
  3  4  1  0
  4  5  1  0
  5  6  1  0
  6  7  1  0
  7  8  1  0
  8  9  2  0
  8  5  1  0
  2 10  1  0
  4 11  1  0
  4 12  1  0
  5 13  1  0
  7 14  1  0
  7 15  1  0
M  END
