
     RDKit          3D

 17 18  0  0  0  0  0  0  0  0999 V2000
    3.0201    0.7636   -1.0873 O   0  0  0  0  0  0  0  0  0  0  0  0
    2.8695    0.4240    0.1183 C   0  0  0  0  0  0  0  0  0  0  0  0
    1.5887    0.0772    0.5170 O   0  0  0  0  0  0  0  0  0  0  0  0
    0.4891    0.1024   -0.3925 C   0  0  0  0  0  0  0  0  0  0  0  0
   -0.6723    0.9114    0.1137 C   0  0  0  0  0  0  0  0  0  0  0  0
   -0.4147    1.7432    1.1814 O   0  0  0  0  0  0  0  0  0  0  0  0
   -1.3187   -0.3897    0.5318 C   0  0  0  0  0  0  0  0  0  0  0  0
   -1.7368   -1.2455   -0.5986 C   0  0  0  0  0  0  0  0  0  0  0  0
   -0.2917   -1.1705   -0.3455 C   0  0  0  0  0  0  0  0  0  0  0  0
    3.7293    0.4160    0.7840 H   0  0  0  0  0  0  0  0  0  0  0  0
    0.8383    0.4264   -1.3908 H   0  0  0  0  0  0  0  0  0  0  0  0
   -1.2680    1.3674   -0.7036 H   0  0  0  0  0  0  0  0  0  0  0  0
   -1.2479    2.2631    1.3453 H   0  0  0  0  0  0  0  0  0  0  0  0
   -1.3380   -0.7016    1.5729 H   0  0  0  0  0  0  0  0  0  0  0  0
   -2.2330   -2.1940   -0.3147 H   0  0  0  0  0  0  0  0  0  0  0  0
   -2.2173   -0.7579   -1.4779 H   0  0  0  0  0  0  0  0  0  0  0  0
    0.2035   -2.0356    0.1465 H   0  0  0  0  0  0  0  0  0  0  0  0
  1  2  2  0
  2  3  1  0
  3  4  1  0
  4  5  1  0
  5  6  1  0
  5  7  1  0
  7  8  1  0
  8  9  1  0
  9  4  1  0
  9  7  1  0
  2 10  1  0
  4 11  1  0
  5 12  1  0
  6 13  1  0
  7 14  1  0
  8 15  1  0
  8 16  1  0
  9 17  1  0
M  END
