
     RDKit          3D

 16 17  0  0  0  0  0  0  0  0999 V2000
    2.3549    0.7650    1.0857 O   0  0  0  0  0  0  0  0  0  0  0  0
    2.4870   -0.3012    0.4442 C   0  0  0  0  0  0  0  0  0  0  0  0
    1.3648   -0.8341   -0.1584 O   0  0  0  0  0  0  0  0  0  0  0  0
    0.1922   -0.3534   -0.1334 C   0  0  0  0  0  0  0  0  0  0  0  0
   -0.2379    1.0175   -0.6549 C   0  0  0  0  0  0  0  0  0  0  0  0
   -1.5021    0.4066   -0.1197 C   0  0  0  0  0  0  0  0  0  0  0  0
   -0.6799   -0.0408    1.0508 C   0  0  0  0  0  0  0  0  0  0  0  0
   -1.0434   -0.8625   -0.8020 C   0  0  0  0  0  0  0  0  0  0  0  0
    3.4635   -0.7492    0.3932 H   0  0  0  0  0  0  0  0  0  0  0  0
    0.1720    1.8732   -0.1270 H   0  0  0  0  0  0  0  0  0  0  0  0
   -0.2506    1.0256   -1.7503 H   0  0  0  0  0  0  0  0  0  0  0  0
   -2.4233    0.7924   -0.1239 H   0  0  0  0  0  0  0  0  0  0  0  0
   -1.1393   -0.9288    1.5266 H   0  0  0  0  0  0  0  0  0  0  0  0
   -0.3466    0.7651    1.7129 H   0  0  0  0  0  0  0  0  0  0  0  0
   -0.9454   -0.7772   -1.9167 H   0  0  0  0  0  0  0  0  0  0  0  0
   -1.4659   -1.7981   -0.4271 H   0  0  0  0  0  0  0  0  0  0  0  0
  1  2  2  0
  2  3  1  0
  3  4  1  0
  4  5  1  0
  5  6  1  0
  6  7  1  0
  6  8  1  0
  7  4  1  0
  8  4  1  0
  2  9  1  0
  5 10  1  0
  5 11  1  0
  6 12  1  0
  7 13  1  0
  7 14  1  0
  8 15  1  0
  8 16  1  0
M  END
