
     RDKit          3D

 17 17  0  0  0  0  0  0  0  0999 V2000
    3.0973    0.4868    0.7246 O   0  0  0  0  0  0  0  0  0  0  0  0
    2.6286    0.4737   -0.4482 C   0  0  0  0  0  0  0  0  0  0  0  0
    1.2975    0.1413   -0.6195 O   0  0  0  0  0  0  0  0  0  0  0  0
    0.4967   -0.1729    0.4990 C   0  0  0  0  0  0  0  0  0  0  0  0
   -0.0718   -1.5379    0.2534 C   0  0  0  0  0  0  0  0  0  0  0  0
   -1.2140   -1.4258   -0.4175 C   0  0  0  0  0  0  0  0  0  0  0  0
   -1.5100    0.0189   -0.6793 C   0  0  0  0  0  0  0  0  0  0  0  0
   -0.7682    0.6572    0.5038 C   0  0  0  0  0  0  0  0  0  0  0  0
   -0.5542    1.9949    0.3293 O   0  0  0  0  0  0  0  0  0  0  0  0
    3.2173    0.7096   -1.3233 H   0  0  0  0  0  0  0  0  0  0  0  0
    1.0559   -0.1139    1.4340 H   0  0  0  0  0  0  0  0  0  0  0  0
    0.3855   -2.4724    0.5774 H   0  0  0  0  0  0  0  0  0  0  0  0
   -1.8449   -2.2401   -0.7337 H   0  0  0  0  0  0  0  0  0  0  0  0
   -0.9878    0.3494   -1.6183 H   0  0  0  0  0  0  0  0  0  0  0  0
   -2.5746    0.2489   -0.6746 H   0  0  0  0  0  0  0  0  0  0  0  0
   -1.3649    0.3986    1.3992 H   0  0  0  0  0  0  0  0  0  0  0  0
   -1.2885    2.4837    0.7937 H   0  0  0  0  0  0  0  0  0  0  0  0
  1  2  2  0
  2  3  1  0
  3  4  1  0
  4  5  1  0
  5  6  2  0
  6  7  1  0
  7  8  1  0
  8  9  1  0
  8  4  1  0
  2 10  1  0
  4 11  1  0
  5 12  1  0
  6 13  1  0
  7 14  1  0
  7 15  1  0
  8 16  1  0
  9 17  1  0
M  END
