
     RDKit          3D

 17 18  0  0  0  0  0  0  0  0999 V2000
    3.2569   -1.1545   -0.4748 O   0  0  0  0  0  0  0  0  0  0  0  0
    2.7613   -0.0528   -0.8459 C   0  0  0  0  0  0  0  0  0  0  0  0
    1.4522    0.2367   -0.4967 O   0  0  0  0  0  0  0  0  0  0  0  0
    0.7230   -0.6928    0.2511 C   0  0  0  0  0  0  0  0  0  0  0  0
   -0.1932   -0.1071    1.2711 C   0  0  0  0  0  0  0  0  0  0  0  0
   -0.9022    1.1488    0.8484 C   0  0  0  0  0  0  0  0  0  0  0  0
   -1.6469    0.3035   -0.1897 C   0  0  0  0  0  0  0  0  0  0  0  0
   -1.6229    0.8012   -1.4683 O   0  0  0  0  0  0  0  0  0  0  0  0
   -0.7391   -0.8536    0.0586 C   0  0  0  0  0  0  0  0  0  0  0  0
    3.3823    0.6163   -1.4206 H   0  0  0  0  0  0  0  0  0  0  0  0
    1.2537   -1.6155    0.5181 H   0  0  0  0  0  0  0  0  0  0  0  0
   -0.3226   -0.5384    2.2610 H   0  0  0  0  0  0  0  0  0  0  0  0
   -1.5545    1.6278    1.5800 H   0  0  0  0  0  0  0  0  0  0  0  0
   -0.2609    1.8866    0.3043 H   0  0  0  0  0  0  0  0  0  0  0  0
   -2.7017    0.1437    0.1655 H   0  0  0  0  0  0  0  0  0  0  0  0
   -1.6592    0.0572   -2.1401 H   0  0  0  0  0  0  0  0  0  0  0  0
   -1.2264   -1.8071    0.2716 H   0  0  0  0  0  0  0  0  0  0  0  0
  1  2  2  0
  2  3  1  0
  3  4  1  0
  4  5  1  0
  5  6  1  0
  6  7  1  0
  7  8  1  0
  7  9  1  0
  9  4  1  0
  9  5  1  0
  2 10  1  0
  4 11  1  0
  5 12  1  0
  6 13  1  0
  6 14  1  0
  7 15  1  0
  8 16  1  0
  9 17  1  0
M  END
