
     RDKit          3D

 17 18  0  0  0  0  0  0  0  0999 V2000
    3.2082   -1.5622   -0.2543 O   0  0  0  0  0  0  0  0  0  0  0  0
    3.1232   -0.3773    0.1750 C   0  0  0  0  0  0  0  0  0  0  0  0
    1.8703    0.2059    0.1932 O   0  0  0  0  0  0  0  0  0  0  0  0
    0.7149   -0.4805   -0.2475 C   0  0  0  0  0  0  0  0  0  0  0  0
   -0.5208   -0.3816    0.4480 C   0  0  0  0  0  0  0  0  0  0  0  0
   -1.9431   -0.5516    0.1261 C   0  0  0  0  0  0  0  0  0  0  0  0
   -2.3143    0.7651   -0.2430 O   0  0  0  0  0  0  0  0  0  0  0  0
   -1.1247    1.4257   -0.6375 C   0  0  0  0  0  0  0  0  0  0  0  0
   -0.2336    0.2975   -0.9576 C   0  0  0  0  0  0  0  0  0  0  0  0
    4.0216    0.1608    0.5193 H   0  0  0  0  0  0  0  0  0  0  0  0
    0.9685   -1.5206   -0.5958 H   0  0  0  0  0  0  0  0  0  0  0  0
   -0.4493    0.3184    1.3398 H   0  0  0  0  0  0  0  0  0  0  0  0
   -2.1239   -1.2255   -0.7534 H   0  0  0  0  0  0  0  0  0  0  0  0
   -2.5273   -0.9221    0.9679 H   0  0  0  0  0  0  0  0  0  0  0  0
   -0.6968    1.9711    0.2528 H   0  0  0  0  0  0  0  0  0  0  0  0
   -1.2940    2.1222   -1.4626 H   0  0  0  0  0  0  0  0  0  0  0  0
   -0.6790   -0.2453   -1.8502 H   0  0  0  0  0  0  0  0  0  0  0  0
  1  2  2  0
  2  3  1  0
  3  4  1  0
  4  5  1  0
  5  6  1  0
  6  7  1  0
  7  8  1  0
  8  9  1  0
  9  4  1  0
  9  5  1  0
  2 10  1  0
  4 11  1  0
  5 12  1  0
  6 13  1  0
  6 14  1  0
  8 15  1  0
  8 16  1  0
  9 17  1  0
M  END
