
     RDKit          3D

 15 16  0  0  0  0  0  0  0  0999 V2000
    2.8125    1.4774    0.9437 O   0  0  0  0  0  0  0  0  0  0  0  0
    2.9524    0.4948    0.1892 C   0  0  0  0  0  0  0  0  0  0  0  0
    1.7871   -0.0912   -0.2105 O   0  0  0  0  0  0  0  0  0  0  0  0
    0.5245    0.3400    0.1691 C   0  0  0  0  0  0  0  0  0  0  0  0
   -0.5972   -0.4837    0.5134 C   0  0  0  0  0  0  0  0  0  0  0  0
   -2.0496   -0.3586    0.0593 C   0  0  0  0  0  0  0  0  0  0  0  0
   -1.4100   -0.7756   -1.2514 C   0  0  0  0  0  0  0  0  0  0  0  0
   -1.5518   -1.5535   -2.1399 O   0  0  0  0  0  0  0  0  0  0  0  0
   -0.4830    0.3169   -0.8519 C   0  0  0  0  0  0  0  0  0  0  0  0
    3.9456    0.1324   -0.1270 H   0  0  0  0  0  0  0  0  0  0  0  0
    0.6122    1.2415    0.8527 H   0  0  0  0  0  0  0  0  0  0  0  0
   -0.3621   -1.5878    0.4034 H   0  0  0  0  0  0  0  0  0  0  0  0
   -2.3590    0.6861    0.0970 H   0  0  0  0  0  0  0  0  0  0  0  0
   -2.7101   -1.1009    0.4867 H   0  0  0  0  0  0  0  0  0  0  0  0
   -1.1114    1.2620   -0.8787 H   0  0  0  0  0  0  0  0  0  0  0  0
  1  2  2  0
  2  3  1  0
  3  4  1  0
  4  5  1  0
  5  6  1  0
  6  7  1  0
  7  8  2  0
  7  9  1  0
  9  4  1  0
  9  5  1  0
  2 10  1  0
  4 11  1  0
  5 12  1  0
  6 13  1  0
  6 14  1  0
  9 15  1  0
M  END
