
     RDKit          3D

 17 17  0  0  0  0  0  0  0  0999 V2000
    3.1507    1.1159    0.1592 O   0  0  0  0  0  0  0  0  0  0  0  0
    2.7175   -0.0388    0.0735 C   0  0  0  0  0  0  0  0  0  0  0  0
    1.3503   -0.2027   -0.0054 O   0  0  0  0  0  0  0  0  0  0  0  0
    0.4157    0.8399    0.0042 C   0  0  0  0  0  0  0  0  0  0  0  0
   -0.5611    0.7862   -1.1471 C   0  0  0  0  0  0  0  0  0  0  0  0
   -0.9312   -0.5585   -1.3021 O   0  0  0  0  0  0  0  0  0  0  0  0
   -1.6084   -0.9145   -0.1529 C   0  0  0  0  0  0  0  0  0  0  0  0
   -0.8116   -0.6852    1.1054 C   0  0  0  0  0  0  0  0  0  0  0  0
   -0.3595    0.6101    1.1569 O   0  0  0  0  0  0  0  0  0  0  0  0
    3.4174   -0.8655    0.0638 H   0  0  0  0  0  0  0  0  0  0  0  0
    0.9136    1.8229    0.0837 H   0  0  0  0  0  0  0  0  0  0  0  0
   -0.1980    1.2417   -2.0641 H   0  0  0  0  0  0  0  0  0  0  0  0
   -1.4982    1.3186   -0.8339 H   0  0  0  0  0  0  0  0  0  0  0  0
   -2.5046   -0.2351   -0.0912 H   0  0  0  0  0  0  0  0  0  0  0  0
   -1.9340   -1.9571   -0.2605 H   0  0  0  0  0  0  0  0  0  0  0  0
   -0.0259   -1.4518    1.2554 H   0  0  0  0  0  0  0  0  0  0  0  0
   -1.5326   -0.8260    1.9551 H   0  0  0  0  0  0  0  0  0  0  0  0
  1  2  2  0
  2  3  1  0
  3  4  1  0
  4  5  1  0
  5  6  1  0
  6  7  1  0
  7  8  1  0
  8  9  1  0
  9  4  1  0
  2 10  1  0
  4 11  1  0
  5 12  1  0
  5 13  1  0
  7 14  1  0
  7 15  1  0
  8 16  1  0
  8 17  1  0
M  END
