
     RDKit          3D

 17 17  0  0  0  0  0  0  0  0999 V2000
    3.2925   -0.4033    0.3302 O   0  0  0  0  0  0  0  0  0  0  0  0
    2.6808    0.6855    0.5946 C   0  0  0  0  0  0  0  0  0  0  0  0
    1.3014    0.6632    0.3788 O   0  0  0  0  0  0  0  0  0  0  0  0
    0.6322   -0.4929   -0.1013 C   0  0  0  0  0  0  0  0  0  0  0  0
   -0.0472   -0.2064   -1.4087 C   0  0  0  0  0  0  0  0  0  0  0  0
   -1.5376   -0.0945   -1.2365 C   0  0  0  0  0  0  0  0  0  0  0  0
   -2.1072   -0.0038   -0.0530 C   0  0  0  0  0  0  0  0  0  0  0  0
   -1.2343   -0.0137    1.1431 C   0  0  0  0  0  0  0  0  0  0  0  0
   -0.2128   -0.9379    0.8878 O   0  0  0  0  0  0  0  0  0  0  0  0
    3.2013    1.5569    0.9589 H   0  0  0  0  0  0  0  0  0  0  0  0
    1.4141   -1.2818   -0.2417 H   0  0  0  0  0  0  0  0  0  0  0  0
    0.1963   -0.9708   -2.1781 H   0  0  0  0  0  0  0  0  0  0  0  0
    0.3075    0.7678   -1.8010 H   0  0  0  0  0  0  0  0  0  0  0  0
   -2.1709   -0.0873   -2.1039 H   0  0  0  0  0  0  0  0  0  0  0  0
   -3.1682    0.0764    0.0823 H   0  0  0  0  0  0  0  0  0  0  0  0
   -1.7666   -0.2759    2.0753 H   0  0  0  0  0  0  0  0  0  0  0  0
   -0.7815    1.0186    1.2142 H   0  0  0  0  0  0  0  0  0  0  0  0
  1  2  2  0
  2  3  1  0
  3  4  1  0
  4  5  1  0
  5  6  1  0
  6  7  2  0
  7  8  1  0
  8  9  1  0
  9  4  1  0
  2 10  1  0
  4 11  1  0
  5 12  1  0
  5 13  1  0
  6 14  1  0
  7 15  1  0
  8 16  1  0
  8 17  1  0
M  END
