
     RDKit          3D

 19 19  0  0  0  0  0  0  0  0999 V2000
    2.7717    0.3443    0.7097 O   0  0  0  0  0  0  0  0  0  0  0  0
    2.8675    0.0151   -0.4773 C   0  0  0  0  0  0  0  0  0  0  0  0
    1.8826   -0.7706   -1.0477 O   0  0  0  0  0  0  0  0  0  0  0  0
    0.7695   -1.1995   -0.2857 C   0  0  0  0  0  0  0  0  0  0  0  0
   -0.0248   -0.0338    0.2489 C   0  0  0  0  0  0  0  0  0  0  0  0
   -0.5545    0.8341   -0.8793 C   0  0  0  0  0  0  0  0  0  0  0  0
   -1.7664    1.0636    0.0133 C   0  0  0  0  0  0  0  0  0  0  0  0
   -1.4849   -0.3516    0.5379 C   0  0  0  0  0  0  0  0  0  0  0  0
   -1.8053   -0.4947    1.8663 O   0  0  0  0  0  0  0  0  0  0  0  0
    3.6967    0.3134   -1.1100 H   0  0  0  0  0  0  0  0  0  0  0  0
    0.1485   -1.8482   -0.9344 H   0  0  0  0  0  0  0  0  0  0  0  0
    1.0898   -1.8468    0.5683 H   0  0  0  0  0  0  0  0  0  0  0  0
    0.4639    0.5943    0.9834 H   0  0  0  0  0  0  0  0  0  0  0  0
    0.0377    1.7191   -1.1150 H   0  0  0  0  0  0  0  0  0  0  0  0
   -0.8539    0.1844   -1.7234 H   0  0  0  0  0  0  0  0  0  0  0  0
   -1.5900    1.7832    0.8422 H   0  0  0  0  0  0  0  0  0  0  0  0
   -2.7248    1.1615   -0.5193 H   0  0  0  0  0  0  0  0  0  0  0  0
   -1.8744   -1.0861   -0.1667 H   0  0  0  0  0  0  0  0  0  0  0  0
   -1.0489   -0.3819    2.4887 H   0  0  0  0  0  0  0  0  0  0  0  0
  1  2  2  0
  2  3  1  0
  3  4  1  0
  4  5  1  0
  5  6  1  0
  6  7  1  0
  7  8  1  0
  8  9  1  0
  8  5  1  0
  2 10  1  0
  4 11  1  0
  4 12  1  0
  5 13  1  0
  6 14  1  0
  6 15  1  0
  7 16  1  0
  7 17  1  0
  8 18  1  0
  9 19  1  0
M  END
