
     RDKit          3D

 21 21  0  0  0  0  0  0  0  0999 V2000
    2.7814    1.1611    0.9399 O   0  0  0  0  0  0  0  0  0  0  0  0
    3.2043    0.8480   -0.1900 C   0  0  0  0  0  0  0  0  0  0  0  0
    2.7020   -0.2334   -0.8407 O   0  0  0  0  0  0  0  0  0  0  0  0
    1.7195   -1.1242   -0.4909 C   0  0  0  0  0  0  0  0  0  0  0  0
    0.3011   -0.6838   -0.5224 C   0  0  0  0  0  0  0  0  0  0  0  0
   -0.0173    0.4620    0.3398 C   0  0  0  0  0  0  0  0  0  0  0  0
   -1.5130    0.8146    0.3004 C   0  0  0  0  0  0  0  0  0  0  0  0
   -2.5082   -0.1957    0.7193 C   0  0  0  0  0  0  0  0  0  0  0  0
   -2.4072    0.2541   -0.7179 C   0  0  0  0  0  0  0  0  0  0  0  0
    3.9841    1.4926   -0.5977 H   0  0  0  0  0  0  0  0  0  0  0  0
    1.8545   -2.0716   -1.1218 H   0  0  0  0  0  0  0  0  0  0  0  0
    1.9644   -1.5016    0.5771 H   0  0  0  0  0  0  0  0  0  0  0  0
    0.0515   -0.4712   -1.6203 H   0  0  0  0  0  0  0  0  0  0  0  0
   -0.3334   -1.5912   -0.3083 H   0  0  0  0  0  0  0  0  0  0  0  0
    0.4761    1.3636   -0.0895 H   0  0  0  0  0  0  0  0  0  0  0  0
    0.2739    0.2931    1.3652 H   0  0  0  0  0  0  0  0  0  0  0  0
   -1.6938    1.8427    0.6674 H   0  0  0  0  0  0  0  0  0  0  0  0
   -2.2476   -1.2518    0.8917 H   0  0  0  0  0  0  0  0  0  0  0  0
   -3.3791    0.1379    1.3294 H   0  0  0  0  0  0  0  0  0  0  0  0
   -3.2139    0.9276   -1.1223 H   0  0  0  0  0  0  0  0  0  0  0  0
   -1.9990   -0.4729   -1.4573 H   0  0  0  0  0  0  0  0  0  0  0  0
  1  2  2  0
  2  3  1  0
  3  4  1  0
  4  5  1  0
  5  6  1  0
  6  7  1  0
  7  8  1  0
  8  9  1  0
  9  7  1  0
  2 10  1  0
  4 11  1  0
  4 12  1  0
  5 13  1  0
  5 14  1  0
  6 15  1  0
  6 16  1  0
  7 17  1  0
  8 18  1  0
  8 19  1  0
  9 20  1  0
  9 21  1  0
M  END
