
     RDKit          3D

 19 18  0  0  0  0  0  0  0  0999 V2000
    3.9180   -0.3665   -0.6245 O   0  0  0  0  0  0  0  0  0  0  0  0
    3.2320    0.6635   -0.3781 C   0  0  0  0  0  0  0  0  0  0  0  0
    1.9057    0.5993    0.0524 O   0  0  0  0  0  0  0  0  0  0  0  0
    1.3886   -0.7121    0.1915 C   0  0  0  0  0  0  0  0  0  0  0  0
   -0.0351   -0.7235    0.6550 C   0  0  0  0  0  0  0  0  0  0  0  0
   -0.9534    0.0030   -0.3145 C   0  0  0  0  0  0  0  0  0  0  0  0
   -0.5959    1.3239   -0.4738 O   0  0  0  0  0  0  0  0  0  0  0  0
   -2.3650   -0.1278    0.2703 C   0  0  0  0  0  0  0  0  0  0  0  0
   -3.2840    0.4715   -0.5753 O   0  0  0  0  0  0  0  0  0  0  0  0
    3.7437    1.6143   -0.5235 H   0  0  0  0  0  0  0  0  0  0  0  0
    1.9909   -1.2481    0.9527 H   0  0  0  0  0  0  0  0  0  0  0  0
    1.5325   -1.2687   -0.7633 H   0  0  0  0  0  0  0  0  0  0  0  0
   -0.0743   -0.2301    1.6448 H   0  0  0  0  0  0  0  0  0  0  0  0
   -0.3421   -1.7742    0.7881 H   0  0  0  0  0  0  0  0  0  0  0  0
   -0.9616   -0.5408   -1.2837 H   0  0  0  0  0  0  0  0  0  0  0  0
   -0.8904    1.6938   -1.3379 H   0  0  0  0  0  0  0  0  0  0  0  0
   -2.5707   -1.1995    0.4036 H   0  0  0  0  0  0  0  0  0  0  0  0
   -2.3036    0.3809    1.2692 H   0  0  0  0  0  0  0  0  0  0  0  0
   -3.3353    1.4411   -0.3154 H   0  0  0  0  0  0  0  0  0  0  0  0
  1  2  2  0
  2  3  1  0
  3  4  1  0
  4  5  1  0
  5  6  1  0
  6  7  1  0
  6  8  1  0
  8  9  1  0
  2 10  1  0
  4 11  1  0
  4 12  1  0
  5 13  1  0
  5 14  1  0
  6 15  1  0
  7 16  1  0
  8 17  1  0
  8 18  1  0
  9 19  1  0
M  END
