
     RDKit          3D

 17 18  0  0  0  0  0  0  0  0999 V2000
    3.6175   -0.0376    0.7332 O   0  0  0  0  0  0  0  0  0  0  0  0
    3.0378    0.5705   -0.2190 C   0  0  0  0  0  0  0  0  0  0  0  0
    1.6638    0.4239   -0.4153 O   0  0  0  0  0  0  0  0  0  0  0  0
    0.9814   -0.4175    0.4845 C   0  0  0  0  0  0  0  0  0  0  0  0
   -0.4732   -0.5317    0.2233 C   0  0  0  0  0  0  0  0  0  0  0  0
   -1.0648   -0.1155   -1.1032 C   0  0  0  0  0  0  0  0  0  0  0  0
   -2.3146    0.3174   -0.3248 C   0  0  0  0  0  0  0  0  0  0  0  0
   -1.5528   -0.0163    0.9379 C   0  0  0  0  0  0  0  0  0  0  0  0
   -1.1813   -1.3433    1.0773 O   0  0  0  0  0  0  0  0  0  0  0  0
    3.6609    1.1863   -0.8427 H   0  0  0  0  0  0  0  0  0  0  0  0
    1.4409   -1.4301    0.3803 H   0  0  0  0  0  0  0  0  0  0  0  0
    1.2079   -0.0583    1.5038 H   0  0  0  0  0  0  0  0  0  0  0  0
   -0.4999    0.7073   -1.5430 H   0  0  0  0  0  0  0  0  0  0  0  0
   -1.3319   -0.9606   -1.7846 H   0  0  0  0  0  0  0  0  0  0  0  0
   -2.5544    1.3858   -0.4158 H   0  0  0  0  0  0  0  0  0  0  0  0
   -3.1678   -0.3771   -0.4443 H   0  0  0  0  0  0  0  0  0  0  0  0
   -1.4695    0.6970    1.7523 H   0  0  0  0  0  0  0  0  0  0  0  0
  1  2  2  0
  2  3  1  0
  3  4  1  0
  4  5  1  0
  5  6  1  0
  6  7  1  0
  7  8  1  0
  8  9  1  0
  8  5  1  0
  9  5  1  0
  2 10  1  0
  4 11  1  0
  4 12  1  0
  6 13  1  0
  6 14  1  0
  7 15  1  0
  7 16  1  0
  8 17  1  0
M  END
