
     RDKit          3D

 14 15  0  0  0  0  0  0  0  0999 V2000
    2.5743    1.3907   -0.6800 O   0  0  0  0  0  0  0  0  0  0  0  0
    2.5556    0.3030   -0.0111 C   0  0  0  0  0  0  0  0  0  0  0  0
    1.3299   -0.2326    0.3027 O   0  0  0  0  0  0  0  0  0  0  0  0
    0.1085    0.3536   -0.0735 C   0  0  0  0  0  0  0  0  0  0  0  0
   -0.7366   -0.6810   -0.8303 C   0  0  0  0  0  0  0  0  0  0  0  0
   -1.7909   -0.4577    0.2309 C   0  0  0  0  0  0  0  0  0  0  0  0
   -1.3470   -0.8725    1.5100 O   0  0  0  0  0  0  0  0  0  0  0  0
   -0.9733    0.3524    0.9745 C   0  0  0  0  0  0  0  0  0  0  0  0
    3.4781   -0.1732    0.2936 H   0  0  0  0  0  0  0  0  0  0  0  0
    0.1716    1.2922   -0.6501 H   0  0  0  0  0  0  0  0  0  0  0  0
   -0.3394   -1.7117   -0.7734 H   0  0  0  0  0  0  0  0  0  0  0  0
   -0.9980   -0.3614   -1.8396 H   0  0  0  0  0  0  0  0  0  0  0  0
   -2.8482   -0.4822   -0.0057 H   0  0  0  0  0  0  0  0  0  0  0  0
   -1.1845    1.2804    1.5521 H   0  0  0  0  0  0  0  0  0  0  0  0
  1  2  2  0
  2  3  1  0
  3  4  1  0
  4  5  1  0
  5  6  1  0
  6  7  1  0
  7  8  1  0
  8  4  1  0
  8  6  1  0
  2  9  1  0
  4 10  1  0
  5 11  1  0
  5 12  1  0
  6 13  1  0
  8 14  1  0
M  END
