
     RDKit          3D

 17 17  0  0  0  0  0  0  0  0999 V2000
    3.2283   -0.0288   -0.5856 O   0  0  0  0  0  0  0  0  0  0  0  0
    2.9222    0.0308    0.6331 C   0  0  0  0  0  0  0  0  0  0  0  0
    1.5823   -0.0569    0.9620 O   0  0  0  0  0  0  0  0  0  0  0  0
    0.5797   -0.2062    0.0080 C   0  0  0  0  0  0  0  0  0  0  0  0
   -0.4335   -1.3106    0.2879 C   0  0  0  0  0  0  0  0  0  0  0  0
   -1.4593   -0.3790   -0.3738 C   0  0  0  0  0  0  0  0  0  0  0  0
   -2.7042   -0.4776    0.1968 O   0  0  0  0  0  0  0  0  0  0  0  0
   -0.5947    0.7650    0.1480 C   0  0  0  0  0  0  0  0  0  0  0  0
   -0.5046    1.8556   -0.6808 O   0  0  0  0  0  0  0  0  0  0  0  0
    3.6935    0.1474    1.3932 H   0  0  0  0  0  0  0  0  0  0  0  0
    0.9026   -0.2531   -1.0482 H   0  0  0  0  0  0  0  0  0  0  0  0
   -0.6857   -1.4140    1.3572 H   0  0  0  0  0  0  0  0  0  0  0  0
   -0.2649   -2.2461   -0.2707 H   0  0  0  0  0  0  0  0  0  0  0  0
   -1.4624   -0.4392   -1.4796 H   0  0  0  0  0  0  0  0  0  0  0  0
   -3.2552    0.3097   -0.0591 H   0  0  0  0  0  0  0  0  0  0  0  0
   -0.8496    1.0093    1.1956 H   0  0  0  0  0  0  0  0  0  0  0  0
   -0.6945    2.6936   -0.1704 H   0  0  0  0  0  0  0  0  0  0  0  0
  1  2  2  0
  2  3  1  0
  3  4  1  0
  4  5  1  0
  5  6  1  0
  6  7  1  0
  6  8  1  0
  8  9  1  0
  8  4  1  0
  2 10  1  0
  4 11  1  0
  5 12  1  0
  5 13  1  0
  6 14  1  0
  7 15  1  0
  8 16  1  0
  9 17  1  0
M  END
