
     RDKit          3D

 19 19  0  0  0  0  0  0  0  0999 V2000
   -4.0972   -0.3554    0.9299 O   0  0  0  0  0  0  0  0  0  0  0  0
   -3.4232    0.5130    0.2948 C   0  0  0  0  0  0  0  0  0  0  0  0
   -2.1305    0.2037   -0.0345 O   0  0  0  0  0  0  0  0  0  0  0  0
   -1.4976   -1.0197    0.2867 C   0  0  0  0  0  0  0  0  0  0  0  0
   -0.0894   -0.9614   -0.2499 C   0  0  0  0  0  0  0  0  0  0  0  0
    0.6967    0.1804    0.3561 C   0  0  0  0  0  0  0  0  0  0  0  0
    2.0627    0.1529   -0.2330 C   0  0  0  0  0  0  0  0  0  0  0  0
    3.0567    1.0788    0.1070 C   0  0  0  0  0  0  0  0  0  0  0  0
    2.2280    1.3261   -1.1291 O   0  0  0  0  0  0  0  0  0  0  0  0
   -3.8660    1.4631    0.0278 H   0  0  0  0  0  0  0  0  0  0  0  0
   -2.0306   -1.8328   -0.2232 H   0  0  0  0  0  0  0  0  0  0  0  0
   -1.4690   -1.2255    1.3583 H   0  0  0  0  0  0  0  0  0  0  0  0
   -0.0620   -0.8894   -1.3564 H   0  0  0  0  0  0  0  0  0  0  0  0
    0.4674   -1.8966    0.0285 H   0  0  0  0  0  0  0  0  0  0  0  0
    0.6845    0.0309    1.4572 H   0  0  0  0  0  0  0  0  0  0  0  0
    0.1691    1.1584    0.2110 H   0  0  0  0  0  0  0  0  0  0  0  0
    2.3315   -0.7894   -0.7680 H   0  0  0  0  0  0  0  0  0  0  0  0
    2.8725    1.8851    0.8517 H   0  0  0  0  0  0  0  0  0  0  0  0
    4.0966    0.9780   -0.2628 H   0  0  0  0  0  0  0  0  0  0  0  0
  1  2  2  0
  2  3  1  0
  3  4  1  0
  4  5  1  0
  5  6  1  0
  6  7  1  0
  7  8  1  0
  8  9  1  0
  9  7  1  0
  2 10  1  0
  4 11  1  0
  4 12  1  0
  5 13  1  0
  5 14  1  0
  6 15  1  0
  6 16  1  0
  7 17  1  0
  8 18  1  0
  8 19  1  0
M  END
