
     RDKit          3D

 19 20  0  0  0  0  0  0  0  0999 V2000
   -3.5535    1.0518   -0.8500 O   0  0  0  0  0  0  0  0  0  0  0  0
   -3.2462   -0.0942   -0.4632 C   0  0  0  0  0  0  0  0  0  0  0  0
   -1.9407   -0.3226   -0.0809 O   0  0  0  0  0  0  0  0  0  0  0  0
   -0.9589    0.6980   -0.1175 C   0  0  0  0  0  0  0  0  0  0  0  0
    0.3275    0.1277    0.3530 C   0  0  0  0  0  0  0  0  0  0  0  0
    1.5770    0.9632    0.4323 C   0  0  0  0  0  0  0  0  0  0  0  0
    2.2796   -0.1096   -0.3839 C   0  0  0  0  0  0  0  0  0  0  0  0
    1.0352   -0.9592   -0.3418 C   0  0  0  0  0  0  0  0  0  0  0  0
    0.3374   -1.2080    0.9476 C   0  0  0  0  0  0  0  0  0  0  0  0
   -3.9393   -0.9096   -0.4115 H   0  0  0  0  0  0  0  0  0  0  0  0
   -0.9015    1.1535   -1.1379 H   0  0  0  0  0  0  0  0  0  0  0  0
   -1.2598    1.5304    0.5599 H   0  0  0  0  0  0  0  0  0  0  0  0
    2.0426    1.0196    1.4319 H   0  0  0  0  0  0  0  0  0  0  0  0
    1.5047    1.9425   -0.0380 H   0  0  0  0  0  0  0  0  0  0  0  0
    3.1635   -0.5629    0.1097 H   0  0  0  0  0  0  0  0  0  0  0  0
    2.4847    0.2462   -1.4272 H   0  0  0  0  0  0  0  0  0  0  0  0
    0.6611   -1.3950   -1.2949 H   0  0  0  0  0  0  0  0  0  0  0  0
    0.9741   -1.3721    1.8384 H   0  0  0  0  0  0  0  0  0  0  0  0
   -0.5874   -1.7998    0.8739 H   0  0  0  0  0  0  0  0  0  0  0  0
  1  2  2  0
  2  3  1  0
  3  4  1  0
  4  5  1  0
  5  6  1  0
  6  7  1  0
  7  8  1  0
  8  9  1  0
  8  5  1  0
  9  5  1  0
  2 10  1  0
  4 11  1  0
  4 12  1  0
  6 13  1  0
  6 14  1  0
  7 15  1  0
  7 16  1  0
  8 17  1  0
  9 18  1  0
  9 19  1  0
M  END
