
     RDKit          3D

 16 17  0  0  0  0  0  0  0  0999 V2000
    2.0419   -1.3516   -0.6376 O   0  0  0  0  0  0  0  0  0  0  0  0
    2.4627   -0.3389   -0.0386 C   0  0  0  0  0  0  0  0  0  0  0  0
    1.5209    0.5390    0.4584 O   0  0  0  0  0  0  0  0  0  0  0  0
    0.1571    0.4314    0.3722 C   0  0  0  0  0  0  0  0  0  0  0  0
   -0.6291   -0.6993    0.9306 C   0  0  0  0  0  0  0  0  0  0  0  0
   -1.2884   -0.8560   -0.4359 C   0  0  0  0  0  0  0  0  0  0  0  0
   -0.6385    0.4345   -0.8480 C   0  0  0  0  0  0  0  0  0  0  0  0
   -0.7002    1.6459   -0.0092 C   0  0  0  0  0  0  0  0  0  0  0  0
    3.5371   -0.1953    0.0636 H   0  0  0  0  0  0  0  0  0  0  0  0
   -1.3939   -0.3293    1.6651 H   0  0  0  0  0  0  0  0  0  0  0  0
   -0.1107   -1.5689    1.3131 H   0  0  0  0  0  0  0  0  0  0  0  0
   -2.3759   -0.8637   -0.4303 H   0  0  0  0  0  0  0  0  0  0  0  0
   -0.8280   -1.7115   -0.9660 H   0  0  0  0  0  0  0  0  0  0  0  0
   -0.1611    0.5200   -1.8325 H   0  0  0  0  0  0  0  0  0  0  0  0
   -0.1106    2.5001   -0.3282 H   0  0  0  0  0  0  0  0  0  0  0  0
   -1.4834    1.8434    0.7232 H   0  0  0  0  0  0  0  0  0  0  0  0
  1  2  2  0
  2  3  1  0
  3  4  1  0
  4  5  1  0
  5  6  1  0
  6  7  1  0
  7  8  1  0
  7  4  1  0
  8  4  1  0
  2  9  1  0
  5 10  1  0
  5 11  1  0
  6 12  1  0
  6 13  1  0
  7 14  1  0
  8 15  1  0
  8 16  1  0
M  END
