
     RDKit          3D

 15 15  0  0  0  0  0  0  0  0999 V2000
    2.7875    1.3742   -0.8289 O   0  0  0  0  0  0  0  0  0  0  0  0
    2.3664    1.1305    0.3317 C   0  0  0  0  0  0  0  0  0  0  0  0
    1.1050    0.6317    0.5314 O   0  0  0  0  0  0  0  0  0  0  0  0
    0.2081    0.3637   -0.5571 C   0  0  0  0  0  0  0  0  0  0  0  0
   -0.0952   -1.1358   -0.4382 C   0  0  0  0  0  0  0  0  0  0  0  0
   -1.1564   -1.0777    0.6091 C   0  0  0  0  0  0  0  0  0  0  0  0
   -1.4008   -1.8681    1.4974 O   0  0  0  0  0  0  0  0  0  0  0  0
   -1.8548    0.2034    0.2982 C   0  0  0  0  0  0  0  0  0  0  0  0
   -0.9727    1.0198   -0.3513 O   0  0  0  0  0  0  0  0  0  0  0  0
    3.0456    1.3341    1.1478 H   0  0  0  0  0  0  0  0  0  0  0  0
    0.6620    0.6064   -1.5251 H   0  0  0  0  0  0  0  0  0  0  0  0
   -0.5222   -1.4852   -1.3991 H   0  0  0  0  0  0  0  0  0  0  0  0
    0.8059   -1.6544   -0.1193 H   0  0  0  0  0  0  0  0  0  0  0  0
   -2.2934    0.6321    1.2147 H   0  0  0  0  0  0  0  0  0  0  0  0
   -2.6851   -0.0748   -0.4115 H   0  0  0  0  0  0  0  0  0  0  0  0
  1  2  2  0
  2  3  1  0
  3  4  1  0
  4  5  1  0
  5  6  1  0
  6  7  2  0
  6  8  1  0
  8  9  1  0
  9  4  1  0
  2 10  1  0
  4 11  1  0
  5 12  1  0
  5 13  1  0
  8 14  1  0
  8 15  1  0
M  END
