
     RDKit          3D

 16 17  0  0  0  0  0  0  0  0999 V2000
    3.1774   -1.5120   -0.0111 O   0  0  0  0  0  0  0  0  0  0  0  0
    3.0461   -0.3536   -0.4567 C   0  0  0  0  0  0  0  0  0  0  0  0
    1.7964    0.2309   -0.4456 O   0  0  0  0  0  0  0  0  0  0  0  0
    0.6667   -0.4525    0.0580 C   0  0  0  0  0  0  0  0  0  0  0  0
   -0.2762    0.3290    0.7821 C   0  0  0  0  0  0  0  0  0  0  0  0
   -1.4198    1.1844    0.2350 C   0  0  0  0  0  0  0  0  0  0  0  0
   -1.9946   -0.2377    0.0358 C   0  0  0  0  0  0  0  0  0  0  0  0
   -0.6105   -0.3979   -0.5926 C   0  0  0  0  0  0  0  0  0  0  0  0
    3.9257    0.1829   -0.8506 H   0  0  0  0  0  0  0  0  0  0  0  0
    0.9546   -1.4851    0.4212 H   0  0  0  0  0  0  0  0  0  0  0  0
   -0.7050   -0.2039    1.6896 H   0  0  0  0  0  0  0  0  0  0  0  0
   -1.9143    1.7657    1.0061 H   0  0  0  0  0  0  0  0  0  0  0  0
   -1.1235    1.6831   -0.6866 H   0  0  0  0  0  0  0  0  0  0  0  0
   -2.1372   -0.7291    0.9974 H   0  0  0  0  0  0  0  0  0  0  0  0
   -2.7871   -0.3102   -0.6975 H   0  0  0  0  0  0  0  0  0  0  0  0
   -0.5986    0.3060   -1.4845 H   0  0  0  0  0  0  0  0  0  0  0  0
  1  2  2  0
  2  3  1  0
  3  4  1  0
  4  5  1  0
  5  6  1  0
  6  7  1  0
  7  8  1  0
  8  4  1  0
  8  5  1  0
  2  9  1  0
  4 10  1  0
  5 11  1  0
  6 12  1  0
  6 13  1  0
  7 14  1  0
  7 15  1  0
  8 16  1  0
M  END
