
     RDKit          3D

 19 19  0  0  0  0  0  0  0  0999 V2000
    2.7455    1.1751   -1.0562 O   0  0  0  0  0  0  0  0  0  0  0  0
    3.0126    0.6351    0.0451 C   0  0  0  0  0  0  0  0  0  0  0  0
    2.2301   -0.4108    0.4801 O   0  0  0  0  0  0  0  0  0  0  0  0
    1.1570   -0.8748   -0.2709 C   0  0  0  0  0  0  0  0  0  0  0  0
    0.0750    0.1318   -0.5275 C   0  0  0  0  0  0  0  0  0  0  0  0
   -0.5542    0.5903    0.7787 C   0  0  0  0  0  0  0  0  0  0  0  0
   -2.0193    0.4448    0.4531 C   0  0  0  0  0  0  0  0  0  0  0  0
   -1.9888   -0.7506   -0.4744 C   0  0  0  0  0  0  0  0  0  0  0  0
   -0.9245   -0.4671   -1.2817 O   0  0  0  0  0  0  0  0  0  0  0  0
    3.8583    0.9892    0.6564 H   0  0  0  0  0  0  0  0  0  0  0  0
    1.4672   -1.3558   -1.2298 H   0  0  0  0  0  0  0  0  0  0  0  0
    0.6885   -1.7154    0.3182 H   0  0  0  0  0  0  0  0  0  0  0  0
    0.4375    1.0530   -1.0225 H   0  0  0  0  0  0  0  0  0  0  0  0
   -0.2952   -0.1852    1.5426 H   0  0  0  0  0  0  0  0  0  0  0  0
   -0.2569    1.6015    1.0642 H   0  0  0  0  0  0  0  0  0  0  0  0
   -2.6605    0.3148    1.3219 H   0  0  0  0  0  0  0  0  0  0  0  0
   -2.3146    1.3215   -0.1888 H   0  0  0  0  0  0  0  0  0  0  0  0
   -2.9138   -0.8618   -1.0401 H   0  0  0  0  0  0  0  0  0  0  0  0
   -1.7440   -1.6357    0.1693 H   0  0  0  0  0  0  0  0  0  0  0  0
  1  2  2  0
  2  3  1  0
  3  4  1  0
  4  5  1  0
  5  6  1  0
  6  7  1  0
  7  8  1  0
  8  9  1  0
  9  5  1  0
  2 10  1  0
  4 11  1  0
  4 12  1  0
  5 13  1  0
  6 14  1  0
  6 15  1  0
  7 16  1  0
  7 17  1  0
  8 18  1  0
  8 19  1  0
M  END
