
     RDKit          3D

 13 13  0  0  0  0  0  0  0  0999 V2000
    2.7423   -0.5804   -0.5469 O   0  0  0  0  0  0  0  0  0  0  0  0
    2.2531    0.4625   -0.0454 C   0  0  0  0  0  0  0  0  0  0  0  0
    0.8865    0.5592    0.0447 O   0  0  0  0  0  0  0  0  0  0  0  0
    0.0127   -0.4566   -0.3992 C   0  0  0  0  0  0  0  0  0  0  0  0
   -0.8826   -0.8045    0.7856 C   0  0  0  0  0  0  0  0  0  0  0  0
   -1.7697    0.3005    0.7844 O   0  0  0  0  0  0  0  0  0  0  0  0
   -1.7224    0.9449   -0.4543 C   0  0  0  0  0  0  0  0  0  0  0  0
   -2.3057    2.0437   -0.7508 O   0  0  0  0  0  0  0  0  0  0  0  0
   -0.9252    0.1529   -1.2711 O   0  0  0  0  0  0  0  0  0  0  0  0
    2.8431    1.2928    0.3216 H   0  0  0  0  0  0  0  0  0  0  0  0
    0.5094   -1.3267   -0.8204 H   0  0  0  0  0  0  0  0  0  0  0  0
   -0.2624   -0.8233    1.7104 H   0  0  0  0  0  0  0  0  0  0  0  0
   -1.3791   -1.7652    0.6413 H   0  0  0  0  0  0  0  0  0  0  0  0
  1  2  2  0
  2  3  1  0
  3  4  1  0
  4  5  1  0
  5  6  1  0
  6  7  1  0
  7  8  2  0
  7  9  1  0
  9  4  1  0
  2 10  1  0
  4 11  1  0
  5 12  1  0
  5 13  1  0
M  END
