
     RDKit          3D

 17 16  0  0  0  0  0  0  0  0999 V2000
   -3.5570   -1.1362   -0.2459 O   0  0  0  0  0  0  0  0  0  0  0  0
   -3.1211    0.0439   -0.2265 C   0  0  0  0  0  0  0  0  0  0  0  0
   -1.7644    0.2922   -0.3499 O   0  0  0  0  0  0  0  0  0  0  0  0
   -0.8300   -0.7415   -0.4997 C   0  0  0  0  0  0  0  0  0  0  0  0
    0.5831   -0.2421   -0.6156 C   0  0  0  0  0  0  0  0  0  0  0  0
    1.0450    0.5401    0.5753 C   0  0  0  0  0  0  0  0  0  0  0  0
    1.0236   -0.1554    1.7550 O   0  0  0  0  0  0  0  0  0  0  0  0
    2.4466    0.9748    0.3145 C   0  0  0  0  0  0  0  0  0  0  0  0
    2.7667    1.6214   -0.6794 O   0  0  0  0  0  0  0  0  0  0  0  0
   -3.8205    0.8752   -0.1112 H   0  0  0  0  0  0  0  0  0  0  0  0
   -1.0592   -1.2579   -1.4632 H   0  0  0  0  0  0  0  0  0  0  0  0
   -0.9769   -1.4782    0.2961 H   0  0  0  0  0  0  0  0  0  0  0  0
    1.2956   -1.0756   -0.7762 H   0  0  0  0  0  0  0  0  0  0  0  0
    0.6184    0.4374   -1.4935 H   0  0  0  0  0  0  0  0  0  0  0  0
    0.4563    1.4766    0.7225 H   0  0  0  0  0  0  0  0  0  0  0  0
    1.6385   -0.9124    1.8011 H   0  0  0  0  0  0  0  0  0  0  0  0
    3.2554    0.7376    0.9967 H   0  0  0  0  0  0  0  0  0  0  0  0
  1  2  2  0
  2  3  1  0
  3  4  1  0
  4  5  1  0
  5  6  1  0
  6  7  1  0
  6  8  1  0
  8  9  2  0
  2 10  1  0
  4 11  1  0
  4 12  1  0
  5 13  1  0
  5 14  1  0
  6 15  1  0
  7 16  1  0
  8 17  1  0
M  END
