
     RDKit          3D

 16 16  0  0  0  0  0  0  0  0999 V2000
    2.9456   -0.3253    0.8321 O   0  0  0  0  0  0  0  0  0  0  0  0
    2.7603    0.0467   -0.3644 C   0  0  0  0  0  0  0  0  0  0  0  0
    1.4563    0.2191   -0.8123 O   0  0  0  0  0  0  0  0  0  0  0  0
    0.3741   -0.0095    0.0274 C   0  0  0  0  0  0  0  0  0  0  0  0
   -0.5589    1.2033    0.1290 C   0  0  0  0  0  0  0  0  0  0  0  0
   -1.7915    0.5462    0.6329 C   0  0  0  0  0  0  0  0  0  0  0  0
   -1.8165   -0.7326    0.2833 C   0  0  0  0  0  0  0  0  0  0  0  0
   -0.5898   -1.0509   -0.4950 C   0  0  0  0  0  0  0  0  0  0  0  0
    3.6344    0.2113   -0.9774 H   0  0  0  0  0  0  0  0  0  0  0  0
    0.6597   -0.3317    1.0528 H   0  0  0  0  0  0  0  0  0  0  0  0
   -0.7244    1.5788   -0.9120 H   0  0  0  0  0  0  0  0  0  0  0  0
   -0.1605    1.9727    0.8041 H   0  0  0  0  0  0  0  0  0  0  0  0
   -2.5554    1.0383    1.2008 H   0  0  0  0  0  0  0  0  0  0  0  0
   -2.5846   -1.4747    0.5030 H   0  0  0  0  0  0  0  0  0  0  0  0
   -0.2339   -2.0804   -0.3513 H   0  0  0  0  0  0  0  0  0  0  0  0
   -0.8150   -0.8114   -1.5531 H   0  0  0  0  0  0  0  0  0  0  0  0
  1  2  2  0
  2  3  1  0
  3  4  1  0
  4  5  1  0
  5  6  1  0
  6  7  2  0
  7  8  1  0
  8  4  1  0
  2  9  1  0
  4 10  1  0
  5 11  1  0
  5 12  1  0
  6 13  1  0
  7 14  1  0
  8 15  1  0
  8 16  1  0
M  END
