
     RDKit          3D

 19 19  0  0  0  0  0  0  0  0999 V2000
    3.9442    0.9868    0.5010 O   0  0  0  0  0  0  0  0  0  0  0  0
    3.4760    0.9768   -0.6670 C   0  0  0  0  0  0  0  0  0  0  0  0
    2.1872    0.4948   -0.8421 O   0  0  0  0  0  0  0  0  0  0  0  0
    1.4693    0.0466    0.2625 C   0  0  0  0  0  0  0  0  0  0  0  0
    0.0943   -0.4475   -0.0587 C   0  0  0  0  0  0  0  0  0  0  0  0
   -0.6834   -0.9360    1.1579 C   0  0  0  0  0  0  0  0  0  0  0  0
   -1.1029    0.3030    0.4454 C   0  0  0  0  0  0  0  0  0  0  0  0
   -2.3853    0.2692   -0.3570 C   0  0  0  0  0  0  0  0  0  0  0  0
   -2.7815   -1.0844   -0.4429 O   0  0  0  0  0  0  0  0  0  0  0  0
    4.0731    1.3398   -1.5206 H   0  0  0  0  0  0  0  0  0  0  0  0
    1.3554    0.8640    1.0198 H   0  0  0  0  0  0  0  0  0  0  0  0
    2.0360   -0.7798    0.7377 H   0  0  0  0  0  0  0  0  0  0  0  0
   -0.0851   -1.0513   -0.9687 H   0  0  0  0  0  0  0  0  0  0  0  0
   -1.2982   -1.8518    1.0512 H   0  0  0  0  0  0  0  0  0  0  0  0
   -0.2436   -0.8229    2.1586 H   0  0  0  0  0  0  0  0  0  0  0  0
   -0.8524    1.2960    0.8795 H   0  0  0  0  0  0  0  0  0  0  0  0
   -3.1926    0.7690    0.2184 H   0  0  0  0  0  0  0  0  0  0  0  0
   -2.2327    0.7047   -1.3542 H   0  0  0  0  0  0  0  0  0  0  0  0
   -3.7781   -1.0768   -0.5880 H   0  0  0  0  0  0  0  0  0  0  0  0
  1  2  2  0
  2  3  1  0
  3  4  1  0
  4  5  1  0
  5  6  1  0
  6  7  1  0
  7  8  1  0
  8  9  1  0
  7  5  1  0
  2 10  1  0
  4 11  1  0
  4 12  1  0
  5 13  1  0
  6 14  1  0
  6 15  1  0
  7 16  1  0
  8 17  1  0
  8 18  1  0
  9 19  1  0
M  END
