
     RDKit          3D

 16 16  0  0  0  0  0  0  0  0999 V2000
    3.5975   -0.5616   -0.2895 O   0  0  0  0  0  0  0  0  0  0  0  0
    3.2498    0.6394   -0.3592 C   0  0  0  0  0  0  0  0  0  0  0  0
    1.8876    0.9118   -0.3564 O   0  0  0  0  0  0  0  0  0  0  0  0
    0.9575   -0.1669   -0.2756 C   0  0  0  0  0  0  0  0  0  0  0  0
   -0.4304    0.4846   -0.2958 C   0  0  0  0  0  0  0  0  0  0  0  0
   -1.4620   -0.6029   -0.2129 C   0  0  0  0  0  0  0  0  0  0  0  0
   -2.8345   -0.2922   -0.2133 C   0  0  0  0  0  0  0  0  0  0  0  0
   -2.2032   -0.6917   -1.4829 O   0  0  0  0  0  0  0  0  0  0  0  0
    3.9872    1.4538   -0.4207 H   0  0  0  0  0  0  0  0  0  0  0  0
    1.1086   -0.7957   -1.1700 H   0  0  0  0  0  0  0  0  0  0  0  0
    1.0902   -0.7681    0.6218 H   0  0  0  0  0  0  0  0  0  0  0  0
   -0.5361    1.1749    0.5722 H   0  0  0  0  0  0  0  0  0  0  0  0
   -0.5441    1.1202   -1.1915 H   0  0  0  0  0  0  0  0  0  0  0  0
   -1.0852   -1.6075    0.0355 H   0  0  0  0  0  0  0  0  0  0  0  0
   -3.1857    0.7573   -0.2053 H   0  0  0  0  0  0  0  0  0  0  0  0
   -3.5971   -1.0553    0.0380 H   0  0  0  0  0  0  0  0  0  0  0  0
  1  2  2  0
  2  3  1  0
  3  4  1  0
  4  5  1  0
  5  6  1  0
  6  7  1  0
  7  8  1  0
  8  6  1  0
  2  9  1  0
  4 10  1  0
  4 11  1  0
  5 12  1  0
  5 13  1  0
  6 14  1  0
  7 15  1  0
  7 16  1  0
M  END
