
     RDKit          3D

 17 17  0  0  0  0  0  0  0  0999 V2000
    3.0099   -1.6743    0.0910 O   0  0  0  0  0  0  0  0  0  0  0  0
    3.0817   -0.4944   -0.3468 C   0  0  0  0  0  0  0  0  0  0  0  0
    1.9142    0.2837   -0.3258 O   0  0  0  0  0  0  0  0  0  0  0  0
    0.7195   -0.2989    0.1858 C   0  0  0  0  0  0  0  0  0  0  0  0
   -0.3728   -0.2439   -0.8526 C   0  0  0  0  0  0  0  0  0  0  0  0
   -1.5986   -0.0299    0.0384 C   0  0  0  0  0  0  0  0  0  0  0  0
   -2.5006    0.7313   -0.6936 O   0  0  0  0  0  0  0  0  0  0  0  0
   -1.0047    0.7068    1.1966 C   0  0  0  0  0  0  0  0  0  0  0  0
    0.3296    0.4392    1.2646 O   0  0  0  0  0  0  0  0  0  0  0  0
    3.9696   -0.0392   -0.7350 H   0  0  0  0  0  0  0  0  0  0  0  0
    0.8977   -1.3484    0.5136 H   0  0  0  0  0  0  0  0  0  0  0  0
   -0.2587    0.5916   -1.5609 H   0  0  0  0  0  0  0  0  0  0  0  0
   -0.4514   -1.2272   -1.3608 H   0  0  0  0  0  0  0  0  0  0  0  0
   -2.0750   -0.9776    0.2900 H   0  0  0  0  0  0  0  0  0  0  0  0
   -2.9852    1.3281   -0.0951 H   0  0  0  0  0  0  0  0  0  0  0  0
   -1.4685    0.4535    2.1755 H   0  0  0  0  0  0  0  0  0  0  0  0
   -1.2067    1.7997    1.0516 H   0  0  0  0  0  0  0  0  0  0  0  0
  1  2  2  0
  2  3  1  0
  3  4  1  0
  4  5  1  0
  5  6  1  0
  6  7  1  0
  6  8  1  0
  8  9  1  0
  9  4  1  0
  2 10  1  0
  4 11  1  0
  5 12  1  0
  5 13  1  0
  6 14  1  0
  7 15  1  0
  8 16  1  0
  8 17  1  0
M  END
