
     RDKit          3D

 19 19  0  0  0  0  0  0  0  0999 V2000
    1.8821    0.1805    1.9464 O   0  0  0  0  0  0  0  0  0  0  0  0
    2.0761   -0.7600    1.1425 C   0  0  0  0  0  0  0  0  0  0  0  0
    1.1961   -0.8995    0.0963 O   0  0  0  0  0  0  0  0  0  0  0  0
    0.1197   -0.0390   -0.0853 C   0  0  0  0  0  0  0  0  0  0  0  0
    0.4218    1.4148   -0.2784 C   0  0  0  0  0  0  0  0  0  0  0  0
    1.2099    1.6717   -1.3820 O   0  0  0  0  0  0  0  0  0  0  0  0
   -1.0470   -0.2350    0.8479 C   0  0  0  0  0  0  0  0  0  0  0  0
   -1.7463   -1.1081   -0.1746 C   0  0  0  0  0  0  0  0  0  0  0  0
   -0.7783   -0.5733   -1.2091 C   0  0  0  0  0  0  0  0  0  0  0  0
    2.8962   -1.4688    1.2243 H   0  0  0  0  0  0  0  0  0  0  0  0
   -0.5457    1.9395   -0.4412 H   0  0  0  0  0  0  0  0  0  0  0  0
    0.8400    1.8339    0.6641 H   0  0  0  0  0  0  0  0  0  0  0  0
    1.9122    2.3294   -1.0788 H   0  0  0  0  0  0  0  0  0  0  0  0
   -1.6636    0.6525    1.0541 H   0  0  0  0  0  0  0  0  0  0  0  0
   -0.8242   -0.8509    1.7517 H   0  0  0  0  0  0  0  0  0  0  0  0
   -2.7983   -0.8094   -0.3914 H   0  0  0  0  0  0  0  0  0  0  0  0
   -1.5914   -2.1841   -0.0462 H   0  0  0  0  0  0  0  0  0  0  0  0
   -0.3141   -1.3413   -1.8338 H   0  0  0  0  0  0  0  0  0  0  0  0
   -1.2454    0.2473   -1.8065 H   0  0  0  0  0  0  0  0  0  0  0  0
  1  2  2  0
  2  3  1  0
  3  4  1  0
  4  5  1  0
  5  6  1  0
  4  7  1  0
  7  8  1  0
  8  9  1  0
  9  4  1  0
  2 10  1  0
  5 11  1  0
  5 12  1  0
  6 13  1  0
  7 14  1  0
  7 15  1  0
  8 16  1  0
  8 17  1  0
  9 18  1  0
  9 19  1  0
M  END
