
     RDKit          3D

 17 18  0  0  0  0  0  0  0  0999 V2000
    2.5529   -1.5509    0.0763 O   0  0  0  0  0  0  0  0  0  0  0  0
    2.7478   -0.3065    0.1326 C   0  0  0  0  0  0  0  0  0  0  0  0
    1.7011    0.5598    0.1209 O   0  0  0  0  0  0  0  0  0  0  0  0
    0.4613    0.2933    0.0574 C   0  0  0  0  0  0  0  0  0  0  0  0
   -0.2771   -0.4442   -1.0356 C   0  0  0  0  0  0  0  0  0  0  0  0
   -1.3604   -0.0791   -0.0213 C   0  0  0  0  0  0  0  0  0  0  0  0
   -2.5795   -0.3389   -0.1171 O   0  0  0  0  0  0  0  0  0  0  0  0
   -0.6820    1.2630    0.0191 C   0  0  0  0  0  0  0  0  0  0  0  0
   -0.3764   -0.5083    1.0209 C   0  0  0  0  0  0  0  0  0  0  0  0
    3.7941   -0.0021    0.1892 H   0  0  0  0  0  0  0  0  0  0  0  0
   -0.1331   -1.5188   -1.0921 H   0  0  0  0  0  0  0  0  0  0  0  0
   -0.3094    0.1453   -1.9478 H   0  0  0  0  0  0  0  0  0  0  0  0
   -3.1496    0.3634   -0.4838 H   0  0  0  0  0  0  0  0  0  0  0  0
   -0.8428    1.8577    0.9353 H   0  0  0  0  0  0  0  0  0  0  0  0
   -0.7965    1.8236   -0.9369 H   0  0  0  0  0  0  0  0  0  0  0  0
   -0.5918    0.0171    1.9842 H   0  0  0  0  0  0  0  0  0  0  0  0
   -0.1587   -1.5743    1.0988 H   0  0  0  0  0  0  0  0  0  0  0  0
  1  2  2  0
  2  3  1  0
  3  4  1  0
  4  5  1  0
  5  6  1  0
  6  7  1  0
  6  8  1  0
  6  9  1  0
  8  4  1  0
  9  4  1  0
  2 10  1  0
  5 11  1  0
  5 12  1  0
  7 13  1  0
  8 14  1  0
  8 15  1  0
  9 16  1  0
  9 17  1  0
M  END
