
     RDKit          3D

 19 19  0  0  0  0  0  0  0  0999 V2000
    3.6880   -0.0968    1.1717 O   0  0  0  0  0  0  0  0  0  0  0  0
    3.2604    0.4312    0.1095 C   0  0  0  0  0  0  0  0  0  0  0  0
    1.9677    0.2054   -0.3437 O   0  0  0  0  0  0  0  0  0  0  0  0
    1.1560   -0.6448    0.4440 C   0  0  0  0  0  0  0  0  0  0  0  0
   -0.2295   -0.7920   -0.1851 C   0  0  0  0  0  0  0  0  0  0  0  0
   -0.9453   -1.6487    0.6721 O   0  0  0  0  0  0  0  0  0  0  0  0
   -0.8285    0.5650   -0.2826 C   0  0  0  0  0  0  0  0  0  0  0  0
   -2.1692    0.8170   -0.8420 C   0  0  0  0  0  0  0  0  0  0  0  0
   -1.9960    0.8159    0.6512 C   0  0  0  0  0  0  0  0  0  0  0  0
    3.9257    1.0831   -0.4682 H   0  0  0  0  0  0  0  0  0  0  0  0
    1.6277   -1.6378    0.6028 H   0  0  0  0  0  0  0  0  0  0  0  0
    1.0851   -0.1753    1.4460 H   0  0  0  0  0  0  0  0  0  0  0  0
   -0.1510   -1.3351   -1.1480 H   0  0  0  0  0  0  0  0  0  0  0  0
   -0.7537   -2.5744    0.4335 H   0  0  0  0  0  0  0  0  0  0  0  0
   -0.0761    1.4016   -0.3809 H   0  0  0  0  0  0  0  0  0  0  0  0
   -2.3502    1.8271   -1.2641 H   0  0  0  0  0  0  0  0  0  0  0  0
   -2.7656    0.0285   -1.3280 H   0  0  0  0  0  0  0  0  0  0  0  0
   -1.9807    1.7598    1.2139 H   0  0  0  0  0  0  0  0  0  0  0  0
   -2.4648   -0.0295    1.1690 H   0  0  0  0  0  0  0  0  0  0  0  0
  1  2  2  0
  2  3  1  0
  3  4  1  0
  4  5  1  0
  5  6  1  0
  5  7  1  0
  7  8  1  0
  8  9  1  0
  9  7  1  0
  2 10  1  0
  4 11  1  0
  4 12  1  0
  5 13  1  0
  6 14  1  0
  7 15  1  0
  8 16  1  0
  8 17  1  0
  9 18  1  0
  9 19  1  0
M  END
