
     RDKit          3D

 16 16  0  0  0  0  0  0  0  0999 V2000
    1.8355    1.7795    0.3983 O   0  0  0  0  0  0  0  0  0  0  0  0
    2.0468    0.9523   -0.5168 C   0  0  0  0  0  0  0  0  0  0  0  0
    1.2194   -0.0874   -0.8578 O   0  0  0  0  0  0  0  0  0  0  0  0
    0.0222   -0.3020   -0.1840 C   0  0  0  0  0  0  0  0  0  0  0  0
   -1.0066    0.7700   -0.2613 C   0  0  0  0  0  0  0  0  0  0  0  0
   -0.6708    2.0007    0.2313 O   0  0  0  0  0  0  0  0  0  0  0  0
    0.0893   -1.2304    0.9737 C   0  0  0  0  0  0  0  0  0  0  0  0
   -0.5947   -1.7066   -0.2252 C   0  0  0  0  0  0  0  0  0  0  0  0
    3.0004    1.1343   -1.0558 H   0  0  0  0  0  0  0  0  0  0  0  0
   -1.9735    0.3925    0.1961 H   0  0  0  0  0  0  0  0  0  0  0  0
   -1.2709    0.8519   -1.3617 H   0  0  0  0  0  0  0  0  0  0  0  0
   -1.4278    2.3655    0.7490 H   0  0  0  0  0  0  0  0  0  0  0  0
    1.0694   -1.6910    1.2062 H   0  0  0  0  0  0  0  0  0  0  0  0
   -0.5355   -1.0574    1.8875 H   0  0  0  0  0  0  0  0  0  0  0  0
   -1.6876   -1.8165   -0.1940 H   0  0  0  0  0  0  0  0  0  0  0  0
   -0.1154   -2.3553   -0.9852 H   0  0  0  0  0  0  0  0  0  0  0  0
  1  2  2  0
  2  3  1  0
  3  4  1  0
  4  5  1  0
  5  6  1  0
  4  7  1  0
  7  8  1  0
  8  4  1  0
  2  9  1  0
  5 10  1  0
  5 11  1  0
  6 12  1  0
  7 13  1  0
  7 14  1  0
  8 15  1  0
  8 16  1  0
M  END
