
     RDKit          3D

 19 20  0  0  0  0  0  0  0  0999 V2000
    3.4669    0.5925   -1.3237 O   0  0  0  0  0  0  0  0  0  0  0  0
    3.4686   -0.1512   -0.3317 C   0  0  0  0  0  0  0  0  0  0  0  0
    2.2578   -0.4233    0.2883 O   0  0  0  0  0  0  0  0  0  0  0  0
    1.0203    0.0840   -0.1262 C   0  0  0  0  0  0  0  0  0  0  0  0
   -0.0408    0.2661    0.8910 C   0  0  0  0  0  0  0  0  0  0  0  0
   -1.2457    1.0908    0.5597 C   0  0  0  0  0  0  0  0  0  0  0  0
   -2.2275    0.1069   -0.0893 C   0  0  0  0  0  0  0  0  0  0  0  0
   -1.2589   -0.6799   -0.9794 C   0  0  0  0  0  0  0  0  0  0  0  0
   -0.1154   -0.9080   -0.0443 C   0  0  0  0  0  0  0  0  0  0  0  0
    4.3450   -0.6170    0.1039 H   0  0  0  0  0  0  0  0  0  0  0  0
    1.0758    0.7454   -1.0205 H   0  0  0  0  0  0  0  0  0  0  0  0
    0.2430    0.0837    1.9504 H   0  0  0  0  0  0  0  0  0  0  0  0
   -1.7651    1.4844    1.4578 H   0  0  0  0  0  0  0  0  0  0  0  0
   -1.0128    1.9023   -0.1815 H   0  0  0  0  0  0  0  0  0  0  0  0
   -2.5873   -0.5904    0.6750 H   0  0  0  0  0  0  0  0  0  0  0  0
   -2.9994    0.6105   -0.6681 H   0  0  0  0  0  0  0  0  0  0  0  0
   -1.6894   -1.6589   -1.2613 H   0  0  0  0  0  0  0  0  0  0  0  0
   -0.9771   -0.0469   -1.8273 H   0  0  0  0  0  0  0  0  0  0  0  0
    0.0420   -1.8910    0.4269 H   0  0  0  0  0  0  0  0  0  0  0  0
  1  2  2  0
  2  3  1  0
  3  4  1  0
  4  5  1  0
  5  6  1  0
  6  7  1  0
  7  8  1  0
  8  9  1  0
  9  4  1  0
  9  5  1  0
  2 10  1  0
  4 11  1  0
  5 12  1  0
  6 13  1  0
  6 14  1  0
  7 15  1  0
  7 16  1  0
  8 17  1  0
  8 18  1  0
  9 19  1  0
M  END
