
     RDKit          3D

 17 17  0  0  0  0  0  0  0  0999 V2000
   -2.6896   -0.2719   -1.7364 O   0  0  0  0  0  0  0  0  0  0  0  0
   -2.9474    0.0615   -0.5376 C   0  0  0  0  0  0  0  0  0  0  0  0
   -1.8580    0.2662    0.2988 O   0  0  0  0  0  0  0  0  0  0  0  0
   -0.5412    0.1015   -0.1975 C   0  0  0  0  0  0  0  0  0  0  0  0
    0.4531    1.1319    0.3426 C   0  0  0  0  0  0  0  0  0  0  0  0
    0.0060    2.0129    1.3257 O   0  0  0  0  0  0  0  0  0  0  0  0
    0.5661   -0.3189    0.6932 C   0  0  0  0  0  0  0  0  0  0  0  0
    1.7164   -1.1222    0.1227 C   0  0  0  0  0  0  0  0  0  0  0  0
    2.3766   -0.4416   -0.8797 O   0  0  0  0  0  0  0  0  0  0  0  0
   -3.9825    0.1766   -0.1999 H   0  0  0  0  0  0  0  0  0  0  0  0
   -0.4556   -0.1904   -1.2579 H   0  0  0  0  0  0  0  0  0  0  0  0
    1.1763    1.5414   -0.3945 H   0  0  0  0  0  0  0  0  0  0  0  0
   -0.9928    2.0720    1.2136 H   0  0  0  0  0  0  0  0  0  0  0  0
    0.3485   -0.5790    1.7525 H   0  0  0  0  0  0  0  0  0  0  0  0
    2.4415   -1.3470    0.9384 H   0  0  0  0  0  0  0  0  0  0  0  0
    1.2861   -2.0700   -0.2676 H   0  0  0  0  0  0  0  0  0  0  0  0
    3.0964   -1.0228   -1.2163 H   0  0  0  0  0  0  0  0  0  0  0  0
  1  2  2  0
  2  3  1  0
  3  4  1  0
  4  5  1  0
  5  6  1  0
  5  7  1  0
  7  8  1  0
  8  9  1  0
  7  4  1  0
  2 10  1  0
  4 11  1  0
  5 12  1  0
  6 13  1  0
  7 14  1  0
  8 15  1  0
  8 16  1  0
  9 17  1  0
M  END
