
     RDKit          3D

 17 17  0  0  0  0  0  0  0  0999 V2000
   -2.5104   -0.8694   -1.7799 O   0  0  0  0  0  0  0  0  0  0  0  0
   -2.4578   -1.0129   -0.5284 C   0  0  0  0  0  0  0  0  0  0  0  0
   -1.3258   -0.5976    0.1239 O   0  0  0  0  0  0  0  0  0  0  0  0
   -0.2548   -0.0257   -0.6005 C   0  0  0  0  0  0  0  0  0  0  0  0
   -0.0672    1.3915   -0.1047 C   0  0  0  0  0  0  0  0  0  0  0  0
    0.2287    1.4195    1.2584 O   0  0  0  0  0  0  0  0  0  0  0  0
    0.9740   -0.8678   -0.3912 C   0  0  0  0  0  0  0  0  0  0  0  0
    2.2319   -0.3626    0.0319 C   0  0  0  0  0  0  0  0  0  0  0  0
    1.3885   -0.9660    1.0332 O   0  0  0  0  0  0  0  0  0  0  0  0
   -3.3164   -1.4588   -0.0424 H   0  0  0  0  0  0  0  0  0  0  0  0
   -0.4722    0.0225   -1.6852 H   0  0  0  0  0  0  0  0  0  0  0  0
   -1.0069    1.9662   -0.2353 H   0  0  0  0  0  0  0  0  0  0  0  0
    0.7077    1.9345   -0.6975 H   0  0  0  0  0  0  0  0  0  0  0  0
   -0.5689    1.6015    1.7832 H   0  0  0  0  0  0  0  0  0  0  0  0
    0.8913   -1.9048   -0.7742 H   0  0  0  0  0  0  0  0  0  0  0  0
    2.4097    0.6943    0.2834 H   0  0  0  0  0  0  0  0  0  0  0  0
    3.1487   -0.9644   -0.1353 H   0  0  0  0  0  0  0  0  0  0  0  0
  1  2  2  0
  2  3  1  0
  3  4  1  0
  4  5  1  0
  5  6  1  0
  4  7  1  0
  7  8  1  0
  8  9  1  0
  9  7  1  0
  2 10  1  0
  4 11  1  0
  5 12  1  0
  5 13  1  0
  6 14  1  0
  7 15  1  0
  8 16  1  0
  8 17  1  0
M  END
