
     RDKit          3D

 17 18  0  0  0  0  0  0  0  0999 V2000
    3.1427    0.7312   -0.0784 O   0  0  0  0  0  0  0  0  0  0  0  0
    2.6065    0.4061    0.9906 C   0  0  0  0  0  0  0  0  0  0  0  0
    1.2626    0.0638    0.9817 O   0  0  0  0  0  0  0  0  0  0  0  0
    0.5566    0.0932   -0.2137 C   0  0  0  0  0  0  0  0  0  0  0  0
   -0.7768    0.7965   -0.1852 C   0  0  0  0  0  0  0  0  0  0  0  0
   -1.1005   -0.0313   -1.3951 C   0  0  0  0  0  0  0  0  0  0  0  0
   -0.4356   -1.0061   -0.4555 C   0  0  0  0  0  0  0  0  0  0  0  0
   -1.2597   -0.3718    0.6256 C   0  0  0  0  0  0  0  0  0  0  0  0
   -0.7150   -0.4829    1.8984 O   0  0  0  0  0  0  0  0  0  0  0  0
    3.2039    0.3982    1.9055 H   0  0  0  0  0  0  0  0  0  0  0  0
    1.1114    0.3957   -1.1268 H   0  0  0  0  0  0  0  0  0  0  0  0
   -0.9492    1.7662   -0.0355 H   0  0  0  0  0  0  0  0  0  0  0  0
   -0.4460    0.2230   -2.2643 H   0  0  0  0  0  0  0  0  0  0  0  0
   -2.1503   -0.2106   -1.6179 H   0  0  0  0  0  0  0  0  0  0  0  0
   -0.2594   -1.9744   -0.6131 H   0  0  0  0  0  0  0  0  0  0  0  0
   -2.3527   -0.5484    0.5769 H   0  0  0  0  0  0  0  0  0  0  0  0
   -1.4385   -0.2483    2.5410 H   0  0  0  0  0  0  0  0  0  0  0  0
  1  2  2  0
  2  3  1  0
  3  4  1  0
  4  5  1  0
  5  6  1  0
  6  7  1  0
  7  8  1  0
  8  9  1  0
  7  4  1  0
  8  5  1  0
  2 10  1  0
  4 11  1  0
  5 12  1  0
  6 13  1  0
  6 14  1  0
  7 15  1  0
  8 16  1  0
  9 17  1  0
M  END
