
     RDKit          3D

 17 17  0  0  0  0  0  0  0  0999 V2000
   -3.2825   -0.4004   -0.8346 O   0  0  0  0  0  0  0  0  0  0  0  0
   -2.9034   -0.1783    0.3637 C   0  0  0  0  0  0  0  0  0  0  0  0
   -1.5644    0.0056    0.6637 O   0  0  0  0  0  0  0  0  0  0  0  0
   -0.6189   -0.0549   -0.3705 C   0  0  0  0  0  0  0  0  0  0  0  0
    0.1885    1.1874   -0.4736 C   0  0  0  0  0  0  0  0  0  0  0  0
    1.4145    1.1989    0.0134 C   0  0  0  0  0  0  0  0  0  0  0  0
    2.0472    0.0105    0.6746 C   0  0  0  0  0  0  0  0  0  0  0  0
    1.0859   -0.9552    0.9841 O   0  0  0  0  0  0  0  0  0  0  0  0
    0.3672   -1.1861   -0.1894 C   0  0  0  0  0  0  0  0  0  0  0  0
   -3.6757   -0.1424    1.1209 H   0  0  0  0  0  0  0  0  0  0  0  0
   -1.1493   -0.2555   -1.3268 H   0  0  0  0  0  0  0  0  0  0  0  0
   -0.2718    2.0360   -0.9493 H   0  0  0  0  0  0  0  0  0  0  0  0
    2.0308    2.0983   -0.0487 H   0  0  0  0  0  0  0  0  0  0  0  0
    2.5508    0.3008    1.6320 H   0  0  0  0  0  0  0  0  0  0  0  0
    2.7794   -0.3992   -0.0305 H   0  0  0  0  0  0  0  0  0  0  0  0
   -0.0909   -2.1762   -0.1816 H   0  0  0  0  0  0  0  0  0  0  0  0
    1.0926   -1.0894   -1.0474 H   0  0  0  0  0  0  0  0  0  0  0  0
  1  2  2  0
  2  3  1  0
  3  4  1  0
  4  5  1  0
  5  6  2  0
  6  7  1  0
  7  8  1  0
  8  9  1  0
  9  4  1  0
  2 10  1  0
  4 11  1  0
  5 12  1  0
  6 13  1  0
  7 14  1  0
  7 15  1  0
  9 16  1  0
  9 17  1  0
M  END
