
     RDKit          3D

 17 18  0  0  0  0  0  0  0  0999 V2000
    2.4598    1.1320    0.4420 O   0  0  0  0  0  0  0  0  0  0  0  0
    2.5087    0.2858   -0.5120 C   0  0  0  0  0  0  0  0  0  0  0  0
    1.3440   -0.3134   -0.8793 O   0  0  0  0  0  0  0  0  0  0  0  0
    0.1507   -0.0902   -0.3246 C   0  0  0  0  0  0  0  0  0  0  0  0
   -0.5078    1.2505   -0.3047 C   0  0  0  0  0  0  0  0  0  0  0  0
   -1.6815    0.9308    0.4306 O   0  0  0  0  0  0  0  0  0  0  0  0
   -1.5598   -0.4177    0.6525 C   0  0  0  0  0  0  0  0  0  0  0  0
   -0.1053   -0.5370    1.1243 C   0  0  0  0  0  0  0  0  0  0  0  0
   -1.0249   -0.9914   -0.6701 C   0  0  0  0  0  0  0  0  0  0  0  0
    3.4823    0.1217   -0.9445 H   0  0  0  0  0  0  0  0  0  0  0  0
    0.0722    2.0381    0.1775 H   0  0  0  0  0  0  0  0  0  0  0  0
   -0.7940    1.5520   -1.3453 H   0  0  0  0  0  0  0  0  0  0  0  0
   -2.2961   -0.9716    1.1678 H   0  0  0  0  0  0  0  0  0  0  0  0
    0.2417   -1.5498    1.2941 H   0  0  0  0  0  0  0  0  0  0  0  0
    0.1368    0.2312    1.8646 H   0  0  0  0  0  0  0  0  0  0  0  0
   -0.8367   -2.0614   -0.6304 H   0  0  0  0  0  0  0  0  0  0  0  0
   -1.5900   -0.6096   -1.5427 H   0  0  0  0  0  0  0  0  0  0  0  0
  1  2  2  0
  2  3  1  0
  3  4  1  0
  4  5  1  0
  5  6  1  0
  6  7  1  0
  7  8  1  0
  7  9  1  0
  8  4  1  0
  9  4  1  0
  2 10  1  0
  5 11  1  0
  5 12  1  0
  7 13  1  0
  8 14  1  0
  8 15  1  0
  9 16  1  0
  9 17  1  0
M  END
