
     RDKit          3D

 19 19  0  0  0  0  0  0  0  0999 V2000
    3.4113   -0.7839   -0.2802 O   0  0  0  0  0  0  0  0  0  0  0  0
    3.1508    0.4061    0.0982 C   0  0  0  0  0  0  0  0  0  0  0  0
    1.8063    0.7066    0.2442 O   0  0  0  0  0  0  0  0  0  0  0  0
    0.7732   -0.2205   -0.0019 C   0  0  0  0  0  0  0  0  0  0  0  0
   -0.1059   -0.4277    1.2127 C   0  0  0  0  0  0  0  0  0  0  0  0
   -1.4652   -0.7817    0.6155 C   0  0  0  0  0  0  0  0  0  0  0  0
   -1.5564    0.1822   -0.5481 C   0  0  0  0  0  0  0  0  0  0  0  0
   -2.1140    1.3648   -0.1221 O   0  0  0  0  0  0  0  0  0  0  0  0
   -0.1410    0.3719   -1.0505 C   0  0  0  0  0  0  0  0  0  0  0  0
    3.9485    1.1295    0.2906 H   0  0  0  0  0  0  0  0  0  0  0  0
    1.1252   -1.2076   -0.3212 H   0  0  0  0  0  0  0  0  0  0  0  0
    0.2318   -1.3283    1.7579 H   0  0  0  0  0  0  0  0  0  0  0  0
   -0.1562    0.4388    1.8721 H   0  0  0  0  0  0  0  0  0  0  0  0
   -2.2790   -0.5387    1.3199 H   0  0  0  0  0  0  0  0  0  0  0  0
   -1.5054   -1.8365    0.3096 H   0  0  0  0  0  0  0  0  0  0  0  0
   -2.1501   -0.2727   -1.3542 H   0  0  0  0  0  0  0  0  0  0  0  0
   -3.0123    1.4498   -0.4787 H   0  0  0  0  0  0  0  0  0  0  0  0
    0.0094   -0.1302   -2.0331 H   0  0  0  0  0  0  0  0  0  0  0  0
    0.0288    1.4781   -1.1755 H   0  0  0  0  0  0  0  0  0  0  0  0
  1  2  2  0
  2  3  1  0
  3  4  1  0
  4  5  1  0
  5  6  1  0
  6  7  1  0
  7  8  1  0
  7  9  1  0
  9  4  1  0
  2 10  1  0
  4 11  1  0
  5 12  1  0
  5 13  1  0
  6 14  1  0
  6 15  1  0
  7 16  1  0
  8 17  1  0
  9 18  1  0
  9 19  1  0
M  END
