
     RDKit          3D

 19 20  0  0  0  0  0  0  0  0999 V2000
    2.7294    0.2350    0.7258 O   0  0  0  0  0  0  0  0  0  0  0  0
    2.7226    0.0941   -0.5337 C   0  0  0  0  0  0  0  0  0  0  0  0
    1.5155   -0.0271   -1.1498 O   0  0  0  0  0  0  0  0  0  0  0  0
    0.3421   -0.0046   -0.4918 C   0  0  0  0  0  0  0  0  0  0  0  0
   -0.0855    1.1756    0.3222 C   0  0  0  0  0  0  0  0  0  0  0  0
   -1.4383    0.6384    0.8381 C   0  0  0  0  0  0  0  0  0  0  0  0
   -1.4017   -0.7304    0.2213 C   0  0  0  0  0  0  0  0  0  0  0  0
    0.0262   -1.1573    0.4774 C   0  0  0  0  0  0  0  0  0  0  0  0
   -0.9305   -0.3987   -1.1942 C   0  0  0  0  0  0  0  0  0  0  0  0
    3.6945    0.0787   -1.0508 H   0  0  0  0  0  0  0  0  0  0  0  0
    0.5813    1.4122    1.1617 H   0  0  0  0  0  0  0  0  0  0  0  0
   -0.2465    2.0729   -0.2816 H   0  0  0  0  0  0  0  0  0  0  0  0
   -1.3837    0.5143    1.9368 H   0  0  0  0  0  0  0  0  0  0  0  0
   -2.2690    1.2627    0.4950 H   0  0  0  0  0  0  0  0  0  0  0  0
   -2.1929   -1.4129    0.3487 H   0  0  0  0  0  0  0  0  0  0  0  0
    0.3221   -2.1305    0.0912 H   0  0  0  0  0  0  0  0  0  0  0  0
    0.3568   -0.8861    1.4985 H   0  0  0  0  0  0  0  0  0  0  0  0
   -1.4731    0.5046   -1.5380 H   0  0  0  0  0  0  0  0  0  0  0  0
   -0.8692   -1.2410   -1.8768 H   0  0  0  0  0  0  0  0  0  0  0  0
  1  2  2  0
  2  3  1  0
  3  4  1  0
  4  5  1  0
  5  6  1  0
  6  7  1  0
  7  8  1  0
  7  9  1  0
  8  4  1  0
  9  4  1  0
  2 10  1  0
  5 11  1  0
  5 12  1  0
  6 13  1  0
  6 14  1  0
  7 15  1  0
  8 16  1  0
  8 17  1  0
  9 18  1  0
  9 19  1  0
M  END
