
     RDKit          3D

 15 16  0  0  0  0  0  0  0  0999 V2000
    2.7587    0.9513   -1.0989 O   0  0  0  0  0  0  0  0  0  0  0  0
    2.8792   -0.0375   -0.3311 C   0  0  0  0  0  0  0  0  0  0  0  0
    1.6901   -0.4803    0.2783 O   0  0  0  0  0  0  0  0  0  0  0  0
    0.4559    0.1705    0.0197 C   0  0  0  0  0  0  0  0  0  0  0  0
   -0.1440    0.6585    1.1610 O   0  0  0  0  0  0  0  0  0  0  0  0
   -1.5085    0.6305    0.9755 C   0  0  0  0  0  0  0  0  0  0  0  0
   -1.8184   -0.3978   -0.0729 C   0  0  0  0  0  0  0  0  0  0  0  0
   -1.4874   -0.1678   -1.3953 O   0  0  0  0  0  0  0  0  0  0  0  0
   -0.5040   -0.7764   -0.6330 C   0  0  0  0  0  0  0  0  0  0  0  0
    3.7964   -0.5450   -0.1198 H   0  0  0  0  0  0  0  0  0  0  0  0
    0.6371    1.0086   -0.6916 H   0  0  0  0  0  0  0  0  0  0  0  0
   -1.9712    0.3011    1.9252 H   0  0  0  0  0  0  0  0  0  0  0  0
   -1.9370    1.6388    0.7378 H   0  0  0  0  0  0  0  0  0  0  0  0
   -2.6276   -1.1376    0.0839 H   0  0  0  0  0  0  0  0  0  0  0  0
   -0.2193   -1.8170   -0.8387 H   0  0  0  0  0  0  0  0  0  0  0  0
  1  2  2  0
  2  3  1  0
  3  4  1  0
  4  5  1  0
  5  6  1  0
  6  7  1  0
  7  8  1  0
  8  9  1  0
  9  4  1  0
  9  7  1  0
  2 10  1  0
  4 11  1  0
  6 12  1  0
  6 13  1  0
  7 14  1  0
  9 15  1  0
M  END
