
     RDKit          3D

 15 16  0  0  0  0  0  0  0  0999 V2000
    3.2564   -1.1539    0.7078 O   0  0  0  0  0  0  0  0  0  0  0  0
    3.0729   -0.0566    0.0971 C   0  0  0  0  0  0  0  0  0  0  0  0
    1.7801    0.3658   -0.1315 O   0  0  0  0  0  0  0  0  0  0  0  0
    0.6384   -0.3610    0.2797 C   0  0  0  0  0  0  0  0  0  0  0  0
   -0.4925    0.3506    0.7428 C   0  0  0  0  0  0  0  0  0  0  0  0
   -1.3315    1.2772    0.2191 O   0  0  0  0  0  0  0  0  0  0  0  0
   -2.3450    0.4617   -0.3466 C   0  0  0  0  0  0  0  0  0  0  0  0
   -1.7797   -0.8355   -0.4640 O   0  0  0  0  0  0  0  0  0  0  0  0
   -0.4704   -0.4982   -0.5968 C   0  0  0  0  0  0  0  0  0  0  0  0
    3.9283    0.5476   -0.2442 H   0  0  0  0  0  0  0  0  0  0  0  0
    0.9489   -1.3120    0.8082 H   0  0  0  0  0  0  0  0  0  0  0  0
   -1.0300   -0.1423    1.6142 H   0  0  0  0  0  0  0  0  0  0  0  0
   -3.2551    0.4587    0.2566 H   0  0  0  0  0  0  0  0  0  0  0  0
   -2.5429    0.7803   -1.3950 H   0  0  0  0  0  0  0  0  0  0  0  0
   -0.3781    0.1176   -1.5475 H   0  0  0  0  0  0  0  0  0  0  0  0
  1  2  2  0
  2  3  1  0
  3  4  1  0
  4  5  1  0
  5  6  1  0
  6  7  1  0
  7  8  1  0
  8  9  1  0
  9  4  1  0
  9  5  1  0
  2 10  1  0
  4 11  1  0
  5 12  1  0
  7 13  1  0
  7 14  1  0
  9 15  1  0
M  END
