
     RDKit          3D

 15 15  0  0  0  0  0  0  0  0999 V2000
    2.4789   -0.1819    0.7218 O   0  0  0  0  0  0  0  0  0  0  0  0
    2.4410   -0.2636   -0.5370 C   0  0  0  0  0  0  0  0  0  0  0  0
    1.2389   -0.6899   -1.0840 O   0  0  0  0  0  0  0  0  0  0  0  0
    0.1068   -1.0211   -0.3216 C   0  0  0  0  0  0  0  0  0  0  0  0
   -0.4157    0.0858    0.5173 C   0  0  0  0  0  0  0  0  0  0  0  0
   -0.8552    1.3272   -0.1807 C   0  0  0  0  0  0  0  0  0  0  0  0
   -2.0495    0.6348   -0.4931 O   0  0  0  0  0  0  0  0  0  0  0  0
   -1.8825   -0.0667    0.7142 C   0  0  0  0  0  0  0  0  0  0  0  0
   -2.6530   -0.5812    1.5608 O   0  0  0  0  0  0  0  0  0  0  0  0
    3.2900   -0.0179   -1.1555 H   0  0  0  0  0  0  0  0  0  0  0  0
    0.2701   -1.9089    0.3392 H   0  0  0  0  0  0  0  0  0  0  0  0
   -0.6906   -1.3152   -1.0414 H   0  0  0  0  0  0  0  0  0  0  0  0
    0.0677    0.2208    1.5061 H   0  0  0  0  0  0  0  0  0  0  0  0
   -1.0461    2.1547    0.5365 H   0  0  0  0  0  0  0  0  0  0  0  0
   -0.3008    1.6231   -1.0827 H   0  0  0  0  0  0  0  0  0  0  0  0
  1  2  2  0
  2  3  1  0
  3  4  1  0
  4  5  1  0
  5  6  1  0
  6  7  1  0
  7  8  1  0
  8  9  2  0
  8  5  1  0
  2 10  1  0
  4 11  1  0
  4 12  1  0
  5 13  1  0
  6 14  1  0
  6 15  1  0
M  END
