
     RDKit          3D

 12 12  0  0  0  0  0  0  0  0999 V2000
    2.2872   -1.2589    0.6671 O   0  0  0  0  0  0  0  0  0  0  0  0
    2.2566   -0.4782   -0.3089 C   0  0  0  0  0  0  0  0  0  0  0  0
    1.0694    0.1622   -0.5771 O   0  0  0  0  0  0  0  0  0  0  0  0
   -0.0553   -0.0518    0.2095 C   0  0  0  0  0  0  0  0  0  0  0  0
   -1.0862    0.9716    0.4481 C   0  0  0  0  0  0  0  0  0  0  0  0
   -1.4086   -0.2282   -0.4289 C   0  0  0  0  0  0  0  0  0  0  0  0
    3.1644   -0.3342   -0.9075 H   0  0  0  0  0  0  0  0  0  0  0  0
    0.1025   -0.7685    1.0462 H   0  0  0  0  0  0  0  0  0  0  0  0
   -1.5407    1.0374    1.4578 H   0  0  0  0  0  0  0  0  0  0  0  0
   -1.1217    1.9316   -0.0965 H   0  0  0  0  0  0  0  0  0  0  0  0
   -1.5126   -0.0774   -1.5202 H   0  0  0  0  0  0  0  0  0  0  0  0
   -2.1550   -0.9056    0.0103 H   0  0  0  0  0  0  0  0  0  0  0  0
  1  2  2  0
  2  3  1  0
  3  4  1  0
  4  5  1  0
  5  6  1  0
  6  4  1  0
  2  7  1  0
  4  8  1  0
  5  9  1  0
  5 10  1  0
  6 11  1  0
  6 12  1  0
M  END
