
     RDKit          3D

 15 15  0  0  0  0  0  0  0  0999 V2000
    2.1660    0.2699    0.9956 O   0  0  0  0  0  0  0  0  0  0  0  0
    2.3102   -0.3973   -0.0543 C   0  0  0  0  0  0  0  0  0  0  0  0
    1.1972   -0.5325   -0.8729 O   0  0  0  0  0  0  0  0  0  0  0  0
   -0.0280    0.0709   -0.5039 C   0  0  0  0  0  0  0  0  0  0  0  0
   -0.0469    1.5313   -0.3401 C   0  0  0  0  0  0  0  0  0  0  0  0
   -1.0140    2.1854   -0.0295 O   0  0  0  0  0  0  0  0  0  0  0  0
   -1.2437   -0.6811   -0.9022 C   0  0  0  0  0  0  0  0  0  0  0  0
   -0.8850   -0.6640    0.5320 C   0  0  0  0  0  0  0  0  0  0  0  0
   -1.6929    0.0780    1.3648 O   0  0  0  0  0  0  0  0  0  0  0  0
    3.2737   -0.8431   -0.2960 H   0  0  0  0  0  0  0  0  0  0  0  0
    0.8733    2.0830   -0.5078 H   0  0  0  0  0  0  0  0  0  0  0  0
   -2.1804   -0.1399   -1.2048 H   0  0  0  0  0  0  0  0  0  0  0  0
   -1.1284   -1.6414   -1.4381 H   0  0  0  0  0  0  0  0  0  0  0  0
   -0.3613   -1.4939    1.0228 H   0  0  0  0  0  0  0  0  0  0  0  0
   -1.2398    0.1747    2.2344 H   0  0  0  0  0  0  0  0  0  0  0  0
  1  2  2  0
  2  3  1  0
  3  4  1  0
  4  5  1  0
  5  6  2  0
  4  7  1  0
  7  8  1  0
  8  9  1  0
  8  4  1  0
  2 10  1  0
  5 11  1  0
  7 12  1  0
  7 13  1  0
  8 14  1  0
  9 15  1  0
M  END
