
     RDKit          3D

 17 18  0  0  0  0  0  0  0  0999 V2000
    3.1597    0.2686   -0.9565 O   0  0  0  0  0  0  0  0  0  0  0  0
    2.8431   -0.2468    0.1336 C   0  0  0  0  0  0  0  0  0  0  0  0
    1.4863   -0.2891    0.4527 O   0  0  0  0  0  0  0  0  0  0  0  0
    0.4969    0.2245   -0.4085 C   0  0  0  0  0  0  0  0  0  0  0  0
   -0.4483    1.1738    0.2882 C   0  0  0  0  0  0  0  0  0  0  0  0
   -1.5418    0.3018    0.8889 C   0  0  0  0  0  0  0  0  0  0  0  0
   -1.5873   -0.8486   -0.0833 C   0  0  0  0  0  0  0  0  0  0  0  0
   -1.5829   -0.4578   -1.4722 O   0  0  0  0  0  0  0  0  0  0  0  0
   -0.4322   -0.9001   -0.8079 C   0  0  0  0  0  0  0  0  0  0  0  0
    3.5334   -0.6620    0.8487 H   0  0  0  0  0  0  0  0  0  0  0  0
    0.9489    0.6383   -1.3178 H   0  0  0  0  0  0  0  0  0  0  0  0
    0.0037    1.7307    1.1089 H   0  0  0  0  0  0  0  0  0  0  0  0
   -0.9325    1.7934   -0.4861 H   0  0  0  0  0  0  0  0  0  0  0  0
   -2.4984    0.8344    0.9874 H   0  0  0  0  0  0  0  0  0  0  0  0
   -1.2216   -0.1073    1.8654 H   0  0  0  0  0  0  0  0  0  0  0  0
   -2.3098   -1.6472    0.1110 H   0  0  0  0  0  0  0  0  0  0  0  0
    0.0827   -1.8066   -1.1524 H   0  0  0  0  0  0  0  0  0  0  0  0
  1  2  2  0
  2  3  1  0
  3  4  1  0
  4  5  1  0
  5  6  1  0
  6  7  1  0
  7  8  1  0
  8  9  1  0
  9  4  1  0
  9  7  1  0
  2 10  1  0
  4 11  1  0
  5 12  1  0
  5 13  1  0
  6 14  1  0
  6 15  1  0
  7 16  1  0
  9 17  1  0
M  END
