
     RDKit          3D

 19 20  0  0  0  0  0  0  0  0999 V2000
    3.3273    0.0083   -0.7802 O   0  0  0  0  0  0  0  0  0  0  0  0
    2.8443   -0.7634    0.1060 C   0  0  0  0  0  0  0  0  0  0  0  0
    1.4656   -0.6907    0.2775 O   0  0  0  0  0  0  0  0  0  0  0  0
    0.6749    0.1824   -0.4858 C   0  0  0  0  0  0  0  0  0  0  0  0
   -0.2539    1.0702    0.3423 C   0  0  0  0  0  0  0  0  0  0  0  0
   -0.9587    0.0917    1.2127 C   0  0  0  0  0  0  0  0  0  0  0  0
   -1.2566   -1.0054    0.1690 C   0  0  0  0  0  0  0  0  0  0  0  0
   -0.6022   -0.3747   -1.0289 C   0  0  0  0  0  0  0  0  0  0  0  0
   -1.1351    1.0624   -0.9141 C   0  0  0  0  0  0  0  0  0  0  0  0
    3.4750   -1.4257    0.6795 H   0  0  0  0  0  0  0  0  0  0  0  0
    1.2499    0.7978   -1.2264 H   0  0  0  0  0  0  0  0  0  0  0  0
    0.1056    1.9936    0.6960 H   0  0  0  0  0  0  0  0  0  0  0  0
   -1.8782    0.4864    1.6539 H   0  0  0  0  0  0  0  0  0  0  0  0
   -0.2917   -0.3904    1.9753 H   0  0  0  0  0  0  0  0  0  0  0  0
   -0.8431   -1.9673    0.4608 H   0  0  0  0  0  0  0  0  0  0  0  0
   -2.3537   -1.0082   -0.0158 H   0  0  0  0  0  0  0  0  0  0  0  0
   -0.6416   -0.8405   -1.9763 H   0  0  0  0  0  0  0  0  0  0  0  0
   -2.2057    1.1311   -0.7234 H   0  0  0  0  0  0  0  0  0  0  0  0
   -0.7221    1.6425   -1.7552 H   0  0  0  0  0  0  0  0  0  0  0  0
  1  2  2  0
  2  3  1  0
  3  4  1  0
  4  5  1  0
  5  6  1  0
  6  7  1  0
  7  8  1  0
  8  9  1  0
  8  4  1  0
  9  5  1  0
  2 10  1  0
  4 11  1  0
  5 12  1  0
  6 13  1  0
  6 14  1  0
  7 15  1  0
  7 16  1  0
  8 17  1  0
  9 18  1  0
  9 19  1  0
M  END
