
     RDKit          3D

 15 15  0  0  0  0  0  0  0  0999 V2000
    2.9822   -0.3036   -0.1232 O   0  0  0  0  0  0  0  0  0  0  0  0
    2.3791    0.7981   -0.1492 C   0  0  0  0  0  0  0  0  0  0  0  0
    1.0179    0.8073   -0.0546 O   0  0  0  0  0  0  0  0  0  0  0  0
    0.3232   -0.4235    0.0702 C   0  0  0  0  0  0  0  0  0  0  0  0
   -0.7984   -0.4413   -0.9772 C   0  0  0  0  0  0  0  0  0  0  0  0
   -1.5749    0.4210    0.0242 C   0  0  0  0  0  0  0  0  0  0  0  0
   -0.7988   -0.3490    1.1011 C   0  0  0  0  0  0  0  0  0  0  0  0
    3.0043    1.6828   -0.2477 H   0  0  0  0  0  0  0  0  0  0  0  0
    0.9255   -1.3237    0.0839 H   0  0  0  0  0  0  0  0  0  0  0  0
   -0.5303    0.0564   -1.9056 H   0  0  0  0  0  0  0  0  0  0  0  0
   -1.2197   -1.4641   -1.0463 H   0  0  0  0  0  0  0  0  0  0  0  0
   -1.2362    1.4650    0.0002 H   0  0  0  0  0  0  0  0  0  0  0  0
   -2.6482    0.2289    0.0051 H   0  0  0  0  0  0  0  0  0  0  0  0
   -0.5807    0.2080    2.0050 H   0  0  0  0  0  0  0  0  0  0  0  0
   -1.2448   -1.3622    1.2141 H   0  0  0  0  0  0  0  0  0  0  0  0
  1  2  2  0
  2  3  1  0
  3  4  1  0
  4  5  1  0
  5  6  1  0
  6  7  1  0
  7  4  1  0
  2  8  1  0
  4  9  1  0
  5 10  1  0
  5 11  1  0
  6 12  1  0
  6 13  1  0
  7 14  1  0
  7 15  1  0
M  END
