
     RDKit          3D

 17 18  0  0  0  0  0  0  0  0999 V2000
    2.1751    0.3572    1.5180 O   0  0  0  0  0  0  0  0  0  0  0  0
    2.5776    0.1615    0.3544 C   0  0  0  0  0  0  0  0  0  0  0  0
    1.6780   -0.1818   -0.6064 O   0  0  0  0  0  0  0  0  0  0  0  0
    0.3162   -0.3517   -0.4644 C   0  0  0  0  0  0  0  0  0  0  0  0
   -0.3049   -1.3440    0.4424 C   0  0  0  0  0  0  0  0  0  0  0  0
   -1.4306   -0.3471    0.7252 C   0  0  0  0  0  0  0  0  0  0  0  0
   -0.6725    0.6460   -0.1301 C   0  0  0  0  0  0  0  0  0  0  0  0
   -0.4002    1.9066    0.3468 O   0  0  0  0  0  0  0  0  0  0  0  0
   -0.5361    0.2760   -1.5484 C   0  0  0  0  0  0  0  0  0  0  0  0
    3.6151    0.2610    0.1095 H   0  0  0  0  0  0  0  0  0  0  0  0
   -0.7280   -2.2333   -0.0933 H   0  0  0  0  0  0  0  0  0  0  0  0
    0.2211   -1.5581    1.3689 H   0  0  0  0  0  0  0  0  0  0  0  0
   -1.5605   -0.0870    1.7732 H   0  0  0  0  0  0  0  0  0  0  0  0
   -2.3893   -0.6058    0.2158 H   0  0  0  0  0  0  0  0  0  0  0  0
   -1.1848    2.4772    0.1990 H   0  0  0  0  0  0  0  0  0  0  0  0
   -1.3181   -0.3915   -2.0051 H   0  0  0  0  0  0  0  0  0  0  0  0
   -0.0583    1.0149   -2.2054 H   0  0  0  0  0  0  0  0  0  0  0  0
  1  2  2  0
  2  3  1  0
  3  4  1  0
  4  5  1  0
  5  6  1  0
  6  7  1  0
  7  8  1  0
  7  9  1  0
  7  4  1  0
  9  4  1  0
  2 10  1  0
  5 11  1  0
  5 12  1  0
  6 13  1  0
  6 14  1  0
  8 15  1  0
  9 16  1  0
  9 17  1  0
M  END
