
     RDKit          3D

 17 18  0  0  0  0  0  0  0  0999 V2000
    2.2516    0.9050   -1.2609 O   0  0  0  0  0  0  0  0  0  0  0  0
    2.7097    0.4191   -0.1902 C   0  0  0  0  0  0  0  0  0  0  0  0
    1.9288   -0.5043    0.4631 O   0  0  0  0  0  0  0  0  0  0  0  0
    0.6744   -0.9558    0.0524 C   0  0  0  0  0  0  0  0  0  0  0  0
   -0.3659    0.1078   -0.0654 C   0  0  0  0  0  0  0  0  0  0  0  0
   -0.7568    0.9317    1.1335 C   0  0  0  0  0  0  0  0  0  0  0  0
   -2.0541    0.4563    1.1263 O   0  0  0  0  0  0  0  0  0  0  0  0
   -1.8151   -0.4264    0.0907 C   0  0  0  0  0  0  0  0  0  0  0  0
   -1.3250    0.0690   -1.2186 C   0  0  0  0  0  0  0  0  0  0  0  0
    3.6773    0.7050    0.2148 H   0  0  0  0  0  0  0  0  0  0  0  0
    0.3142   -1.6823    0.8327 H   0  0  0  0  0  0  0  0  0  0  0  0
    0.6990   -1.5167   -0.9019 H   0  0  0  0  0  0  0  0  0  0  0  0
   -0.2259    0.6218    2.0551 H   0  0  0  0  0  0  0  0  0  0  0  0
   -0.7492    2.0341    0.9586 H   0  0  0  0  0  0  0  0  0  0  0  0
   -1.9511   -1.4879    0.2789 H   0  0  0  0  0  0  0  0  0  0  0  0
   -1.8043    1.0099   -1.5663 H   0  0  0  0  0  0  0  0  0  0  0  0
   -1.2074   -0.6863   -2.0027 H   0  0  0  0  0  0  0  0  0  0  0  0
  1  2  2  0
  2  3  1  0
  3  4  1  0
  4  5  1  0
  5  6  1  0
  6  7  1  0
  7  8  1  0
  8  9  1  0
  8  5  1  0
  9  5  1  0
  2 10  1  0
  4 11  1  0
  4 12  1  0
  6 13  1  0
  6 14  1  0
  8 15  1  0
  9 16  1  0
  9 17  1  0
M  END
