
     RDKit          3D

 17 19  0  0  0  0  0  0  0  0999 V2000
    2.9594   -1.4904   -1.6109 O   0  0  0  0  0  0  0  0  0  0  0  0
    3.2925   -0.4981   -0.8916 C   0  0  0  0  0  0  0  0  0  0  0  0
    2.2689    0.1423   -0.2367 O   0  0  0  0  0  0  0  0  0  0  0  0
    0.9177   -0.2123   -0.3040 C   0  0  0  0  0  0  0  0  0  0  0  0
   -0.2058    0.7523   -0.4391 C   0  0  0  0  0  0  0  0  0  0  0  0
   -1.4677    0.8756    0.3167 C   0  0  0  0  0  0  0  0  0  0  0  0
   -2.6428    0.1204    0.3432 C   0  0  0  0  0  0  0  0  0  0  0  0
   -1.4082   -0.6448    0.5235 C   0  0  0  0  0  0  0  0  0  0  0  0
    0.0117   -0.1323    0.8109 C   0  0  0  0  0  0  0  0  0  0  0  0
    4.3142   -0.1627   -0.7885 H   0  0  0  0  0  0  0  0  0  0  0  0
    0.7766   -1.1138   -0.9809 H   0  0  0  0  0  0  0  0  0  0  0  0
    0.2758    1.7758   -0.5106 H   0  0  0  0  0  0  0  0  0  0  0  0
   -1.2713    1.3943    1.3244 H   0  0  0  0  0  0  0  0  0  0  0  0
   -3.3381    0.0724    1.2208 H   0  0  0  0  0  0  0  0  0  0  0  0
   -3.2693    0.1087   -0.6008 H   0  0  0  0  0  0  0  0  0  0  0  0
   -1.3815   -1.4089   -0.2375 H   0  0  0  0  0  0  0  0  0  0  0  0
    0.1680    0.4216    1.7407 H   0  0  0  0  0  0  0  0  0  0  0  0
  1  2  2  0
  2  3  1  0
  3  4  1  0
  4  5  1  0
  5  6  1  0
  6  7  1  0
  7  8  1  0
  8  9  1  0
  9  4  1  0
  9  5  1  0
  8  6  1  0
  2 10  1  0
  4 11  1  0
  5 12  1  0
  6 13  1  0
  7 14  1  0
  7 15  1  0
  8 16  1  0
  9 17  1  0
M  END
