
     RDKit          3D

 17 17  0  0  0  0  0  0  0  0999 V2000
    3.5692   -0.4790    0.3047 O   0  0  0  0  0  0  0  0  0  0  0  0
    2.8269    0.4110   -0.1879 C   0  0  0  0  0  0  0  0  0  0  0  0
    1.4767    0.2656   -0.0610 O   0  0  0  0  0  0  0  0  0  0  0  0
    0.8147   -0.7950    0.5749 C   0  0  0  0  0  0  0  0  0  0  0  0
   -0.6794   -0.5543    0.4825 C   0  0  0  0  0  0  0  0  0  0  0  0
   -1.2163   -0.4668   -0.9257 C   0  0  0  0  0  0  0  0  0  0  0  0
   -1.9890    0.7593   -0.4262 C   0  0  0  0  0  0  0  0  0  0  0  0
   -0.9644    0.9082    0.6396 C   0  0  0  0  0  0  0  0  0  0  0  0
   -0.5917    1.8548    1.2963 O   0  0  0  0  0  0  0  0  0  0  0  0
    3.2203    1.2807   -0.7047 H   0  0  0  0  0  0  0  0  0  0  0  0
    1.0798   -1.7866    0.1509 H   0  0  0  0  0  0  0  0  0  0  0  0
    1.0428   -0.8344    1.6766 H   0  0  0  0  0  0  0  0  0  0  0  0
   -1.2880   -1.1667    1.1825 H   0  0  0  0  0  0  0  0  0  0  0  0
   -1.8798   -1.2991   -1.2303 H   0  0  0  0  0  0  0  0  0  0  0  0
   -0.4318   -0.1800   -1.6499 H   0  0  0  0  0  0  0  0  0  0  0  0
   -2.0206    1.5919   -1.1561 H   0  0  0  0  0  0  0  0  0  0  0  0
   -2.9694    0.4904    0.0341 H   0  0  0  0  0  0  0  0  0  0  0  0
  1  2  2  0
  2  3  1  0
  3  4  1  0
  4  5  1  0
  5  6  1  0
  6  7  1  0
  7  8  1  0
  8  9  2  0
  8  5  1  0
  2 10  1  0
  4 11  1  0
  4 12  1  0
  5 13  1  0
  6 14  1  0
  6 15  1  0
  7 16  1  0
  7 17  1  0
M  END
