
     RDKit          3D

 16 17  0  0  0  0  0  0  0  0999 V2000
    3.0197   -0.7027   -0.4393 O   0  0  0  0  0  0  0  0  0  0  0  0
    2.7491    0.3900    0.1224 C   0  0  0  0  0  0  0  0  0  0  0  0
    1.4188    0.6966    0.3449 O   0  0  0  0  0  0  0  0  0  0  0  0
    0.4358   -0.2146   -0.0609 C   0  0  0  0  0  0  0  0  0  0  0  0
   -0.7920    0.3652   -0.6968 C   0  0  0  0  0  0  0  0  0  0  0  0
   -1.1196    0.9019    0.6650 C   0  0  0  0  0  0  0  0  0  0  0  0
   -0.6600   -0.4970    0.9384 C   0  0  0  0  0  0  0  0  0  0  0  0
   -1.4883   -0.8984   -0.2485 C   0  0  0  0  0  0  0  0  0  0  0  0
    3.5551    1.0573    0.4152 H   0  0  0  0  0  0  0  0  0  0  0  0
    0.7737   -1.1332   -0.5389 H   0  0  0  0  0  0  0  0  0  0  0  0
   -0.8786    0.8200   -1.5796 H   0  0  0  0  0  0  0  0  0  0  0  0
   -2.2114    1.0331    0.7691 H   0  0  0  0  0  0  0  0  0  0  0  0
   -0.4874    1.7138    1.0446 H   0  0  0  0  0  0  0  0  0  0  0  0
   -0.5720   -0.9644    1.8152 H   0  0  0  0  0  0  0  0  0  0  0  0
   -1.1710   -1.7998   -0.7925 H   0  0  0  0  0  0  0  0  0  0  0  0
   -2.5719   -0.7678   -0.1032 H   0  0  0  0  0  0  0  0  0  0  0  0
  1  2  2  0
  2  3  1  0
  3  4  1  0
  4  5  1  0
  5  6  1  0
  6  7  1  0
  7  8  1  0
  7  4  1  0
  8  5  1  0
  2  9  1  0
  4 10  1  0
  5 11  1  0
  6 12  1  0
  6 13  1  0
  7 14  1  0
  8 15  1  0
  8 16  1  0
M  END
