
     RDKit          3D

 16 15  0  0  0  0  0  0  0  0999 V2000
    2.5541   -0.3560    0.8202 O   0  0  0  0  0  0  0  0  0  0  0  0
    2.6714    0.3622   -0.1995 C   0  0  0  0  0  0  0  0  0  0  0  0
    1.6044    0.4525   -1.0585 O   0  0  0  0  0  0  0  0  0  0  0  0
    0.4145   -0.2349   -0.7999 C   0  0  0  0  0  0  0  0  0  0  0  0
   -0.2392    0.2055    0.4603 C   0  0  0  0  0  0  0  0  0  0  0  0
   -0.5398    1.5845    0.3974 O   0  0  0  0  0  0  0  0  0  0  0  0
   -1.5700   -0.4899    0.6991 C   0  0  0  0  0  0  0  0  0  0  0  0
   -2.4845   -0.2557   -0.3026 O   0  0  0  0  0  0  0  0  0  0  0  0
    3.6195    0.9018   -0.3846 H   0  0  0  0  0  0  0  0  0  0  0  0
   -0.2664   -0.0141   -1.6742 H   0  0  0  0  0  0  0  0  0  0  0  0
    0.5760   -1.3334   -0.8493 H   0  0  0  0  0  0  0  0  0  0  0  0
    0.3746   -0.0389    1.3409 H   0  0  0  0  0  0  0  0  0  0  0  0
   -0.3048    1.9304   -0.5161 H   0  0  0  0  0  0  0  0  0  0  0  0
   -1.4227   -1.5827    0.8633 H   0  0  0  0  0  0  0  0  0  0  0  0
   -1.9799   -0.0321    1.6452 H   0  0  0  0  0  0  0  0  0  0  0  0
   -3.0073   -1.0993   -0.4417 H   0  0  0  0  0  0  0  0  0  0  0  0
  1  2  2  0
  2  3  1  0
  3  4  1  0
  4  5  1  0
  5  6  1  0
  5  7  1  0
  7  8  1  0
  2  9  1  0
  4 10  1  0
  4 11  1  0
  5 12  1  0
  6 13  1  0
  7 14  1  0
  7 15  1  0
  8 16  1  0
M  END
