
     RDKit          3D

 14 13  0  0  0  0  0  0  0  0999 V2000
    3.1693   -0.6756   -0.4098 O   0  0  0  0  0  0  0  0  0  0  0  0
    2.6085    0.4011   -0.0968 C   0  0  0  0  0  0  0  0  0  0  0  0
    1.2306    0.3937    0.0134 O   0  0  0  0  0  0  0  0  0  0  0  0
    0.5195   -0.7985   -0.2247 C   0  0  0  0  0  0  0  0  0  0  0  0
   -0.9453   -0.6011   -0.0564 C   0  0  0  0  0  0  0  0  0  0  0  0
   -1.7130   -1.5121   -0.2202 O   0  0  0  0  0  0  0  0  0  0  0  0
   -1.4333    0.7515    0.3193 C   0  0  0  0  0  0  0  0  0  0  0  0
   -2.8091    0.8021    0.4441 O   0  0  0  0  0  0  0  0  0  0  0  0
    3.1295    1.3249    0.0901 H   0  0  0  0  0  0  0  0  0  0  0  0
    0.7104   -1.0760   -1.2958 H   0  0  0  0  0  0  0  0  0  0  0  0
    0.8700   -1.6361    0.4276 H   0  0  0  0  0  0  0  0  0  0  0  0
   -1.1447    1.5204   -0.4332 H   0  0  0  0  0  0  0  0  0  0  0  0
   -0.9129    1.0577    1.2659 H   0  0  0  0  0  0  0  0  0  0  0  0
   -3.2796    0.0483    0.0462 H   0  0  0  0  0  0  0  0  0  0  0  0
  1  2  2  0
  2  3  1  0
  3  4  1  0
  4  5  1  0
  5  6  2  0
  5  7  1  0
  7  8  1  0
  2  9  1  0
  4 10  1  0
  4 11  1  0
  7 12  1  0
  7 13  1  0
  8 14  1  0
M  END
