
     RDKit          3D

 13 14  0  0  0  0  0  0  0  0999 V2000
    2.6287   -1.2518   -0.1244 O   0  0  0  0  0  0  0  0  0  0  0  0
    2.2204   -0.4013    0.7297 C   0  0  0  0  0  0  0  0  0  0  0  0
    0.9382    0.1205    0.6870 O   0  0  0  0  0  0  0  0  0  0  0  0
    0.0602   -0.2850   -0.3093 C   0  0  0  0  0  0  0  0  0  0  0  0
   -1.3643   -0.5120    0.0952 C   0  0  0  0  0  0  0  0  0  0  0  0
   -1.6792   -0.1989   -1.2311 O   0  0  0  0  0  0  0  0  0  0  0  0
   -0.7716    0.8016   -0.9095 C   0  0  0  0  0  0  0  0  0  0  0  0
   -1.4612    0.8950    0.3668 C   0  0  0  0  0  0  0  0  0  0  0  0
   -1.8406    1.7378    1.1215 O   0  0  0  0  0  0  0  0  0  0  0  0
    2.9570   -0.1274    1.4815 H   0  0  0  0  0  0  0  0  0  0  0  0
    0.5026   -1.0141   -0.9906 H   0  0  0  0  0  0  0  0  0  0  0  0
   -1.7298   -1.3047    0.5994 H   0  0  0  0  0  0  0  0  0  0  0  0
   -0.4604    1.5403   -1.5164 H   0  0  0  0  0  0  0  0  0  0  0  0
  1  2  2  0
  2  3  1  0
  3  4  1  0
  4  5  1  0
  5  6  1  0
  6  7  1  0
  7  8  1  0
  8  9  2  0
  7  4  1  0
  8  5  1  0
  2 10  1  0
  4 11  1  0
  5 12  1  0
  7 13  1  0
M  END
