
     RDKit          3D

 19 20  0  0  0  0  0  0  0  0999 V2000
    3.3102   -0.4260    1.4900 O   0  0  0  0  0  0  0  0  0  0  0  0
    3.0400    0.6703    0.9136 C   0  0  0  0  0  0  0  0  0  0  0  0
    1.9650    0.6899    0.0350 O   0  0  0  0  0  0  0  0  0  0  0  0
    1.2172   -0.4944   -0.1859 C   0  0  0  0  0  0  0  0  0  0  0  0
    0.1020   -0.3107   -1.1506 C   0  0  0  0  0  0  0  0  0  0  0  0
   -0.9969    0.6554   -0.9162 C   0  0  0  0  0  0  0  0  0  0  0  0
   -1.4976    0.9105    0.4824 C   0  0  0  0  0  0  0  0  0  0  0  0
   -1.8247   -0.5565    0.5870 C   0  0  0  0  0  0  0  0  0  0  0  0
   -1.2386   -0.8610   -0.7568 C   0  0  0  0  0  0  0  0  0  0  0  0
    3.6248    1.5656    1.0964 H   0  0  0  0  0  0  0  0  0  0  0  0
    1.9146   -1.2616   -0.6051 H   0  0  0  0  0  0  0  0  0  0  0  0
    0.8377   -0.8621    0.7783 H   0  0  0  0  0  0  0  0  0  0  0  0
    0.3492   -0.4776   -2.2248 H   0  0  0  0  0  0  0  0  0  0  0  0
   -1.5318    1.1081   -1.7495 H   0  0  0  0  0  0  0  0  0  0  0  0
   -2.4153    1.5210    0.4995 H   0  0  0  0  0  0  0  0  0  0  0  0
   -0.7036    1.2724    1.1838 H   0  0  0  0  0  0  0  0  0  0  0  0
   -2.9258   -0.7806    0.5884 H   0  0  0  0  0  0  0  0  0  0  0  0
   -1.3545   -1.0105    1.4613 H   0  0  0  0  0  0  0  0  0  0  0  0
   -1.8719   -1.3520   -1.5269 H   0  0  0  0  0  0  0  0  0  0  0  0
  1  2  2  0
  2  3  1  0
  3  4  1  0
  4  5  1  0
  5  6  1  0
  6  7  1  0
  7  8  1  0
  8  9  1  0
  9  5  1  0
  9  6  1  0
  2 10  1  0
  4 11  1  0
  4 12  1  0
  5 13  1  0
  6 14  1  0
  7 15  1  0
  7 16  1  0
  8 17  1  0
  8 18  1  0
  9 19  1  0
M  END
