
     RDKit          3D

 17 17  0  0  0  0  0  0  0  0999 V2000
    3.4674   -0.2130   -0.2857 O   0  0  0  0  0  0  0  0  0  0  0  0
    2.8878    0.4986    0.5913 C   0  0  0  0  0  0  0  0  0  0  0  0
    1.5080    0.4547    0.6033 O   0  0  0  0  0  0  0  0  0  0  0  0
    0.7509   -0.3430   -0.3142 C   0  0  0  0  0  0  0  0  0  0  0  0
   -0.0378    0.5645   -1.1385 C   0  0  0  0  0  0  0  0  0  0  0  0
   -1.2880    0.8441   -0.8201 C   0  0  0  0  0  0  0  0  0  0  0  0
   -1.8291    0.1991    0.3918 C   0  0  0  0  0  0  0  0  0  0  0  0
   -1.2291   -1.1553    0.6037 C   0  0  0  0  0  0  0  0  0  0  0  0
    0.0866   -1.2809    0.3909 O   0  0  0  0  0  0  0  0  0  0  0  0
    3.4716    1.1023    1.2852 H   0  0  0  0  0  0  0  0  0  0  0  0
    1.5125   -0.8609   -0.9681 H   0  0  0  0  0  0  0  0  0  0  0  0
    0.4377    1.0070   -2.0291 H   0  0  0  0  0  0  0  0  0  0  0  0
   -1.8664    1.5279   -1.4502 H   0  0  0  0  0  0  0  0  0  0  0  0
   -2.9371    0.1174    0.2815 H   0  0  0  0  0  0  0  0  0  0  0  0
   -1.6484    0.8788    1.2494 H   0  0  0  0  0  0  0  0  0  0  0  0
   -1.8168   -1.8716   -0.0415 H   0  0  0  0  0  0  0  0  0  0  0  0
   -1.4699   -1.4699    1.6502 H   0  0  0  0  0  0  0  0  0  0  0  0
  1  2  2  0
  2  3  1  0
  3  4  1  0
  4  5  1  0
  5  6  2  0
  6  7  1  0
  7  8  1  0
  8  9  1  0
  9  4  1  0
  2 10  1  0
  4 11  1  0
  5 12  1  0
  6 13  1  0
  7 14  1  0
  7 15  1  0
  8 16  1  0
  8 17  1  0
M  END
