
     RDKit          3D

 15 15  0  0  0  0  0  0  0  0999 V2000
    2.9800   -0.6058    0.6498 O   0  0  0  0  0  0  0  0  0  0  0  0
    2.7626   -0.2913   -0.5544 C   0  0  0  0  0  0  0  0  0  0  0  0
    1.4903    0.1140   -0.8870 O   0  0  0  0  0  0  0  0  0  0  0  0
    0.4807    0.1639    0.1201 C   0  0  0  0  0  0  0  0  0  0  0  0
   -0.6625   -0.7654   -0.2159 C   0  0  0  0  0  0  0  0  0  0  0  0
   -1.8142   -0.0309    0.4533 C   0  0  0  0  0  0  0  0  0  0  0  0
   -1.4856    1.3729    0.0927 C   0  0  0  0  0  0  0  0  0  0  0  0
   -2.3411    2.2318   -0.1798 O   0  0  0  0  0  0  0  0  0  0  0  0
   -0.0982    1.4511    0.1400 O   0  0  0  0  0  0  0  0  0  0  0  0
    3.5786   -0.3486   -1.2890 H   0  0  0  0  0  0  0  0  0  0  0  0
    0.8720   -0.1490    1.1029 H   0  0  0  0  0  0  0  0  0  0  0  0
   -0.8140   -0.8897   -1.2998 H   0  0  0  0  0  0  0  0  0  0  0  0
   -0.5044   -1.7588    0.2395 H   0  0  0  0  0  0  0  0  0  0  0  0
   -1.6594   -0.1306    1.5399 H   0  0  0  0  0  0  0  0  0  0  0  0
   -2.7849   -0.3636    0.0876 H   0  0  0  0  0  0  0  0  0  0  0  0
  1  2  2  0
  2  3  1  0
  3  4  1  0
  4  5  1  0
  5  6  1  0
  6  7  1  0
  7  8  2  0
  7  9  1  0
  9  4  1  0
  2 10  1  0
  4 11  1  0
  5 12  1  0
  5 13  1  0
  6 14  1  0
  6 15  1  0
M  END
