
     RDKit          3D

 13 14  0  0  0  0  0  0  0  0999 V2000
    2.2665   -0.5057    0.8611 O   0  0  0  0  0  0  0  0  0  0  0  0
    2.1873    0.1384   -0.2302 C   0  0  0  0  0  0  0  0  0  0  0  0
    0.9439    0.5997   -0.6764 O   0  0  0  0  0  0  0  0  0  0  0  0
   -0.1713    0.3108    0.1385 C   0  0  0  0  0  0  0  0  0  0  0  0
   -0.4355   -1.1305    0.3642 C   0  0  0  0  0  0  0  0  0  0  0  0
   -1.3647   -0.3991   -0.5111 C   0  0  0  0  0  0  0  0  0  0  0  0
   -2.2779    0.4733    0.1463 O   0  0  0  0  0  0  0  0  0  0  0  0
   -1.2034    1.3233    0.3669 C   0  0  0  0  0  0  0  0  0  0  0  0
   -1.1583    2.5438    0.6614 O   0  0  0  0  0  0  0  0  0  0  0  0
    3.0768    0.3232   -0.8013 H   0  0  0  0  0  0  0  0  0  0  0  0
   -0.7745   -1.4003    1.3786 H   0  0  0  0  0  0  0  0  0  0  0  0
    0.2223   -1.8721   -0.0997 H   0  0  0  0  0  0  0  0  0  0  0  0
   -1.3113   -0.4048   -1.5984 H   0  0  0  0  0  0  0  0  0  0  0  0
  1  2  2  0
  2  3  1  0
  3  4  1  0
  4  5  1  0
  5  6  1  0
  6  7  1  0
  7  8  1  0
  8  9  2  0
  6  4  1  0
  8  4  1  0
  2 10  1  0
  5 11  1  0
  5 12  1  0
  6 13  1  0
M  END
