
     RDKit          3D

 17 18  0  0  0  0  0  0  0  0999 V2000
    2.6790    2.1197    0.3786 O   0  0  0  0  0  0  0  0  0  0  0  0
    2.9707    0.9921   -0.1127 C   0  0  0  0  0  0  0  0  0  0  0  0
    1.9760    0.0743   -0.4197 O   0  0  0  0  0  0  0  0  0  0  0  0
    0.6045    0.3498   -0.2016 C   0  0  0  0  0  0  0  0  0  0  0  0
    0.0722   -0.6765    0.7709 C   0  0  0  0  0  0  0  0  0  0  0  0
   -1.3033   -0.9409    0.2435 C   0  0  0  0  0  0  0  0  0  0  0  0
   -2.2180    0.1398   -0.1535 C   0  0  0  0  0  0  0  0  0  0  0  0
   -1.2702   -0.4339   -1.1377 C   0  0  0  0  0  0  0  0  0  0  0  0
   -0.0936    0.2152   -1.3783 O   0  0  0  0  0  0  0  0  0  0  0  0
    4.0125    0.7135   -0.3072 H   0  0  0  0  0  0  0  0  0  0  0  0
    0.5405    1.3693    0.2275 H   0  0  0  0  0  0  0  0  0  0  0  0
    0.6743   -1.5957    0.6547 H   0  0  0  0  0  0  0  0  0  0  0  0
    0.0934   -0.2477    1.7788 H   0  0  0  0  0  0  0  0  0  0  0  0
   -1.7093   -1.9493    0.4816 H   0  0  0  0  0  0  0  0  0  0  0  0
   -3.2808   -0.1597   -0.3010 H   0  0  0  0  0  0  0  0  0  0  0  0
   -2.1188    1.1766    0.2042 H   0  0  0  0  0  0  0  0  0  0  0  0
   -1.6294   -1.1465   -1.9230 H   0  0  0  0  0  0  0  0  0  0  0  0
  1  2  2  0
  2  3  1  0
  3  4  1  0
  4  5  1  0
  5  6  1  0
  6  7  1  0
  7  8  1  0
  8  9  1  0
  9  4  1  0
  8  6  1  0
  2 10  1  0
  4 11  1  0
  5 12  1  0
  5 13  1  0
  6 14  1  0
  7 15  1  0
  7 16  1  0
  8 17  1  0
M  END
