
     RDKit          3D

 16 16  0  0  0  0  0  0  0  0999 V2000
    2.8989    0.4701   -1.3266 O   0  0  0  0  0  0  0  0  0  0  0  0
    2.8893    0.5438   -0.0718 C   0  0  0  0  0  0  0  0  0  0  0  0
    1.7631    0.0753    0.5842 O   0  0  0  0  0  0  0  0  0  0  0  0
    0.7056   -0.4493   -0.1615 C   0  0  0  0  0  0  0  0  0  0  0  0
   -0.2224   -1.4570    0.4005 C   0  0  0  0  0  0  0  0  0  0  0  0
   -0.6711   -0.0705    0.3948 C   0  0  0  0  0  0  0  0  0  0  0  0
   -1.6086    0.4847   -0.6422 C   0  0  0  0  0  0  0  0  0  0  0  0
   -2.8354    0.8089   -0.0824 O   0  0  0  0  0  0  0  0  0  0  0  0
    3.7250    0.9560    0.4789 H   0  0  0  0  0  0  0  0  0  0  0  0
    0.8224   -0.4655   -1.2710 H   0  0  0  0  0  0  0  0  0  0  0  0
   -0.0072   -1.9551    1.3877 H   0  0  0  0  0  0  0  0  0  0  0  0
   -0.7112   -2.1603   -0.3031 H   0  0  0  0  0  0  0  0  0  0  0  0
   -0.7235    0.4493    1.3650 H   0  0  0  0  0  0  0  0  0  0  0  0
   -1.7323   -0.2620   -1.4597 H   0  0  0  0  0  0  0  0  0  0  0  0
   -1.1537    1.3775   -1.0877 H   0  0  0  0  0  0  0  0  0  0  0  0
   -3.1387    1.6542   -0.4685 H   0  0  0  0  0  0  0  0  0  0  0  0
  1  2  2  0
  2  3  1  0
  3  4  1  0
  4  5  1  0
  5  6  1  0
  6  7  1  0
  7  8  1  0
  6  4  1  0
  2  9  1  0
  4 10  1  0
  5 11  1  0
  5 12  1  0
  6 13  1  0
  7 14  1  0
  7 15  1  0
  8 16  1  0
M  END
