
     RDKit          3D

 19 19  0  0  0  0  0  0  0  0999 V2000
    2.9684    0.1760    0.6408 O   0  0  0  0  0  0  0  0  0  0  0  0
    2.5676    0.4368   -0.5052 C   0  0  0  0  0  0  0  0  0  0  0  0
    1.4759   -0.2363   -1.0226 O   0  0  0  0  0  0  0  0  0  0  0  0
    0.7587   -1.2271   -0.3264 C   0  0  0  0  0  0  0  0  0  0  0  0
    0.1237   -0.7254    0.9035 C   0  0  0  0  0  0  0  0  0  0  0  0
   -0.8837    0.3348    0.8185 C   0  0  0  0  0  0  0  0  0  0  0  0
   -2.0923   -0.0764   -0.0260 C   0  0  0  0  0  0  0  0  0  0  0  0
   -1.4647    0.5425   -1.1221 O   0  0  0  0  0  0  0  0  0  0  0  0
   -0.8387    1.4029   -0.1977 C   0  0  0  0  0  0  0  0  0  0  0  0
    3.1081    1.2005   -1.0591 H   0  0  0  0  0  0  0  0  0  0  0  0
    1.5366   -1.9865   -0.0087 H   0  0  0  0  0  0  0  0  0  0  0  0
    0.0899   -1.8087   -0.9945 H   0  0  0  0  0  0  0  0  0  0  0  0
   -0.3341   -1.5885    1.4794 H   0  0  0  0  0  0  0  0  0  0  0  0
    0.9422   -0.3907    1.6092 H   0  0  0  0  0  0  0  0  0  0  0  0
   -1.2247    0.7094    1.8110 H   0  0  0  0  0  0  0  0  0  0  0  0
   -3.0445    0.3517    0.2809 H   0  0  0  0  0  0  0  0  0  0  0  0
   -2.1719   -1.1685   -0.2014 H   0  0  0  0  0  0  0  0  0  0  0  0
   -1.6127    2.1963    0.0454 H   0  0  0  0  0  0  0  0  0  0  0  0
    0.0962    1.8574   -0.5021 H   0  0  0  0  0  0  0  0  0  0  0  0
  1  2  2  0
  2  3  1  0
  3  4  1  0
  4  5  1  0
  5  6  1  0
  6  7  1  0
  7  8  1  0
  8  9  1  0
  9  6  1  0
  2 10  1  0
  4 11  1  0
  4 12  1  0
  5 13  1  0
  5 14  1  0
  6 15  1  0
  7 16  1  0
  7 17  1  0
  9 18  1  0
  9 19  1  0
M  END
