
     RDKit          3D

 16 16  0  0  0  0  0  0  0  0999 V2000
    3.0478    0.3181   -0.9223 O   0  0  0  0  0  0  0  0  0  0  0  0
    2.8571   -0.3599    0.1191 C   0  0  0  0  0  0  0  0  0  0  0  0
    1.5608   -0.5747    0.5486 O   0  0  0  0  0  0  0  0  0  0  0  0
    0.4243   -0.0797   -0.1091 C   0  0  0  0  0  0  0  0  0  0  0  0
   -0.5236   -1.1384   -0.5123 C   0  0  0  0  0  0  0  0  0  0  0  0
   -1.7646   -0.6734   -0.4341 C   0  0  0  0  0  0  0  0  0  0  0  0
   -1.7707    0.7346    0.0267 C   0  0  0  0  0  0  0  0  0  0  0  0
   -0.4309    0.8023    0.7732 C   0  0  0  0  0  0  0  0  0  0  0  0
    3.7394   -0.7366    0.6184 H   0  0  0  0  0  0  0  0  0  0  0  0
    0.6883    0.5094   -1.0220 H   0  0  0  0  0  0  0  0  0  0  0  0
   -0.2659   -2.1559   -0.8301 H   0  0  0  0  0  0  0  0  0  0  0  0
   -2.6411   -1.2592   -0.6782 H   0  0  0  0  0  0  0  0  0  0  0  0
   -2.6144    0.9964    0.6671 H   0  0  0  0  0  0  0  0  0  0  0  0
   -1.6706    1.4336   -0.8520 H   0  0  0  0  0  0  0  0  0  0  0  0
   -0.0546    1.8396    0.8351 H   0  0  0  0  0  0  0  0  0  0  0  0
   -0.5813    0.3438    1.7719 H   0  0  0  0  0  0  0  0  0  0  0  0
  1  2  2  0
  2  3  1  0
  3  4  1  0
  4  5  1  0
  5  6  2  0
  6  7  1  0
  7  8  1  0
  8  4  1  0
  2  9  1  0
  4 10  1  0
  5 11  1  0
  6 12  1  0
  7 13  1  0
  7 14  1  0
  8 15  1  0
  8 16  1  0
M  END
