
     RDKit          3D

 17 17  0  0  0  0  0  0  0  0999 V2000
    2.5586   -0.1454    0.7466 O   0  0  0  0  0  0  0  0  0  0  0  0
    2.2282   -0.4233   -0.4219 C   0  0  0  0  0  0  0  0  0  0  0  0
    0.9459   -0.3877   -0.8738 O   0  0  0  0  0  0  0  0  0  0  0  0
   -0.1317   -0.0192   -0.0533 C   0  0  0  0  0  0  0  0  0  0  0  0
   -0.1212    1.3630    0.4934 C   0  0  0  0  0  0  0  0  0  0  0  0
    0.9312    1.6934    1.2938 O   0  0  0  0  0  0  0  0  0  0  0  0
   -0.6532   -1.1573    0.7797 C   0  0  0  0  0  0  0  0  0  0  0  0
   -1.4806   -0.6245   -0.3113 C   0  0  0  0  0  0  0  0  0  0  0  0
   -1.5587   -1.3408   -1.5039 O   0  0  0  0  0  0  0  0  0  0  0  0
    2.9996   -0.7193   -1.1564 H   0  0  0  0  0  0  0  0  0  0  0  0
   -1.1201    1.5569    0.9793 H   0  0  0  0  0  0  0  0  0  0  0  0
   -0.1557    2.0511   -0.4071 H   0  0  0  0  0  0  0  0  0  0  0  0
    1.4664    2.4234    0.8705 H   0  0  0  0  0  0  0  0  0  0  0  0
   -0.2535   -2.1696    0.6493 H   0  0  0  0  0  0  0  0  0  0  0  0
   -0.8335   -0.8921    1.8403 H   0  0  0  0  0  0  0  0  0  0  0  0
   -2.3656   -0.0280    0.0015 H   0  0  0  0  0  0  0  0  0  0  0  0
   -2.4560   -1.1805   -1.8827 H   0  0  0  0  0  0  0  0  0  0  0  0
  1  2  2  0
  2  3  1  0
  3  4  1  0
  4  5  1  0
  5  6  1  0
  4  7  1  0
  7  8  1  0
  8  9  1  0
  8  4  1  0
  2 10  1  0
  5 11  1  0
  5 12  1  0
  6 13  1  0
  7 14  1  0
  7 15  1  0
  8 16  1  0
  9 17  1  0
M  END
