
     RDKit          3D

 14 13  0  0  0  0  0  0  0  0999 V2000
    1.8424   -0.1605   -1.9461 O   0  0  0  0  0  0  0  0  0  0  0  0
    2.1812    0.1033   -0.7639 C   0  0  0  0  0  0  0  0  0  0  0  0
    1.2287    0.0019    0.2200 O   0  0  0  0  0  0  0  0  0  0  0  0
   -0.1012   -0.3731    0.0232 C   0  0  0  0  0  0  0  0  0  0  0  0
   -0.4807   -1.6116    0.7229 C   0  0  0  0  0  0  0  0  0  0  0  0
    0.3378   -2.1907    1.3852 O   0  0  0  0  0  0  0  0  0  0  0  0
   -1.0809    0.7432    0.3779 C   0  0  0  0  0  0  0  0  0  0  0  0
   -0.8317    1.8432   -0.4087 O   0  0  0  0  0  0  0  0  0  0  0  0
    3.2095    0.3930   -0.6133 H   0  0  0  0  0  0  0  0  0  0  0  0
   -0.2400   -0.5730   -1.0799 H   0  0  0  0  0  0  0  0  0  0  0  0
   -1.4763   -1.9847    0.6371 H   0  0  0  0  0  0  0  0  0  0  0  0
   -0.8794    0.9923    1.4404 H   0  0  0  0  0  0  0  0  0  0  0  0
   -2.0964    0.3499    0.3197 H   0  0  0  0  0  0  0  0  0  0  0  0
   -1.6132    2.4671   -0.3144 H   0  0  0  0  0  0  0  0  0  0  0  0
  1  2  2  0
  2  3  1  0
  3  4  1  0
  4  5  1  0
  5  6  2  0
  4  7  1  0
  7  8  1  0
  2  9  1  0
  4 10  1  0
  5 11  1  0
  7 12  1  0
  7 13  1  0
  8 14  1  0
M  END
