
     RDKit          3D

 17 18  0  0  0  0  0  0  0  0999 V2000
   -1.1324    2.1881   -0.9816 O   0  0  0  0  0  0  0  0  0  0  0  0
   -1.9830    1.6234   -0.2535 C   0  0  0  0  0  0  0  0  0  0  0  0
   -1.6210    0.4424    0.3542 O   0  0  0  0  0  0  0  0  0  0  0  0
   -0.4021   -0.2225    0.2672 C   0  0  0  0  0  0  0  0  0  0  0  0
    0.8702    0.4433    0.7340 C   0  0  0  0  0  0  0  0  0  0  0  0
    2.0506    0.5046   -0.1269 C   0  0  0  0  0  0  0  0  0  0  0  0
    1.1913    1.6646    0.0318 O   0  0  0  0  0  0  0  0  0  0  0  0
   -0.1788   -1.2710   -0.7795 C   0  0  0  0  0  0  0  0  0  0  0  0
   -0.5393   -1.7259    0.5608 C   0  0  0  0  0  0  0  0  0  0  0  0
   -2.9806    2.0669   -0.1136 H   0  0  0  0  0  0  0  0  0  0  0  0
    1.0631    0.5089    1.8344 H   0  0  0  0  0  0  0  0  0  0  0  0
    3.0316    0.7072    0.3288 H   0  0  0  0  0  0  0  0  0  0  0  0
    2.1076    0.1040   -1.1454 H   0  0  0  0  0  0  0  0  0  0  0  0
    0.8287   -1.4851   -1.1379 H   0  0  0  0  0  0  0  0  0  0  0  0
   -0.9602   -1.2997   -1.5661 H   0  0  0  0  0  0  0  0  0  0  0  0
    0.1930   -2.0883    1.3007 H   0  0  0  0  0  0  0  0  0  0  0  0
   -1.5388   -2.1611    0.6924 H   0  0  0  0  0  0  0  0  0  0  0  0
  1  2  2  0
  2  3  1  0
  3  4  1  0
  4  5  1  0
  5  6  1  0
  6  7  1  0
  4  8  1  0
  8  9  1  0
  9  4  1  0
  7  5  1  0
  2 10  1  0
  5 11  1  0
  6 12  1  0
  6 13  1  0
  8 14  1  0
  8 15  1  0
  9 16  1  0
  9 17  1  0
M  END
