
     RDKit          3D

 16 15  0  0  0  0  0  0  0  0999 V2000
    2.2547    0.7893    1.4722 O   0  0  0  0  0  0  0  0  0  0  0  0
    2.3118   -0.3943    1.0158 C   0  0  0  0  0  0  0  0  0  0  0  0
    1.2254   -0.7976    0.2388 O   0  0  0  0  0  0  0  0  0  0  0  0
    0.1476    0.0477   -0.0180 C   0  0  0  0  0  0  0  0  0  0  0  0
   -1.1604   -0.4817    0.5315 C   0  0  0  0  0  0  0  0  0  0  0  0
   -1.0751   -0.6397    1.9335 O   0  0  0  0  0  0  0  0  0  0  0  0
   -0.0707    0.2757   -1.5067 C   0  0  0  0  0  0  0  0  0  0  0  0
   -1.1707    1.1336   -1.6424 O   0  0  0  0  0  0  0  0  0  0  0  0
    3.1570   -1.0431    1.2231 H   0  0  0  0  0  0  0  0  0  0  0  0
    0.3329    1.0183    0.4866 H   0  0  0  0  0  0  0  0  0  0  0  0
   -1.4503   -1.4545    0.0926 H   0  0  0  0  0  0  0  0  0  0  0  0
   -1.9924    0.2335    0.3726 H   0  0  0  0  0  0  0  0  0  0  0  0
   -1.9511   -0.6916    2.3473 H   0  0  0  0  0  0  0  0  0  0  0  0
    0.7895    0.7550   -1.9830 H   0  0  0  0  0  0  0  0  0  0  0  0
   -0.2899   -0.6828   -1.9936 H   0  0  0  0  0  0  0  0  0  0  0  0
   -1.0584    1.9320   -1.0833 H   0  0  0  0  0  0  0  0  0  0  0  0
  1  2  2  0
  2  3  1  0
  3  4  1  0
  4  5  1  0
  5  6  1  0
  4  7  1  0
  7  8  1  0
  2  9  1  0
  4 10  1  0
  5 11  1  0
  5 12  1  0
  6 13  1  0
  7 14  1  0
  7 15  1  0
  8 16  1  0
M  END
