
     RDKit          3D

 15 18  0  0  0  0  0  0  0  0999 V2000
    2.7506   -0.7431   -0.5179 O   0  0  0  0  0  0  0  0  0  0  0  0
    2.3508    0.3052   -1.1085 C   0  0  0  0  0  0  0  0  0  0  0  0
    1.1428    0.8782   -0.7403 O   0  0  0  0  0  0  0  0  0  0  0  0
    0.4133    0.2748    0.2697 C   0  0  0  0  0  0  0  0  0  0  0  0
   -0.9693    0.9969    0.6360 C   0  0  0  0  0  0  0  0  0  0  0  0
   -1.0661    0.4150   -0.3833 C   0  0  0  0  0  0  0  0  0  0  0  0
   -1.7950   -0.3454    0.1633 C   0  0  0  0  0  0  0  0  0  0  0  0
   -0.4121   -1.0677   -0.2071 C   0  0  0  0  0  0  0  0  0  0  0  0
   -0.3022   -0.4821    0.8115 C   0  0  0  0  0  0  0  0  0  0  0  0
    2.9797    0.7261   -1.8968 H   0  0  0  0  0  0  0  0  0  0  0  0
   -1.0895    1.2045    1.7051 H   0  0  0  0  0  0  0  0  0  0  0  0
   -0.6211    0.4648   -1.3680 H   0  0  0  0  0  0  0  0  0  0  0  0
   -2.3274   -0.8175    1.0042 H   0  0  0  0  0  0  0  0  0  0  0  0
   -0.2840   -1.2648   -1.2803 H   0  0  0  0  0  0  0  0  0  0  0  0
   -0.7703   -0.5450    1.7911 H   0  0  0  0  0  0  0  0  0  0  0  0
  1  2  2  0
  2  3  1  0
  3  4  1  0
  4  5  1  0
  5  6  1  0
  6  7  1  0
  7  8  1  0
  8  9  1  0
  8  4  1  0
  9  4  1  0
  7  5  1  0
  9  6  1  0
  2 10  1  0
  5 11  1  0
  6 12  1  0
  7 13  1  0
  8 14  1  0
  9 15  1  0
M  END
