
     RDKit          3D

 15 17  0  0  0  0  0  0  0  0999 V2000
    3.1725   -0.2322   -0.6328 O   0  0  0  0  0  0  0  0  0  0  0  0
    2.6005    0.7482   -0.0988 C   0  0  0  0  0  0  0  0  0  0  0  0
    1.2340    0.6582    0.0826 O   0  0  0  0  0  0  0  0  0  0  0  0
    0.5794   -0.5177   -0.3402 C   0  0  0  0  0  0  0  0  0  0  0  0
   -0.8336   -0.4638   -0.8340 C   0  0  0  0  0  0  0  0  0  0  0  0
   -1.7216    0.6315   -0.2511 C   0  0  0  0  0  0  0  0  0  0  0  0
   -2.7463    0.2700    0.5902 O   0  0  0  0  0  0  0  0  0  0  0  0
   -1.4557    0.1681    1.0658 C   0  0  0  0  0  0  0  0  0  0  0  0
   -0.5670   -0.9382    0.5318 C   0  0  0  0  0  0  0  0  0  0  0  0
    3.1806    1.6300    0.2038 H   0  0  0  0  0  0  0  0  0  0  0  0
    1.1765   -1.3289   -0.8021 H   0  0  0  0  0  0  0  0  0  0  0  0
   -1.1901   -1.0759   -1.6520 H   0  0  0  0  0  0  0  0  0  0  0  0
   -1.6233    1.6409   -0.6547 H   0  0  0  0  0  0  0  0  0  0  0  0
   -1.1147    0.7747    1.9220 H   0  0  0  0  0  0  0  0  0  0  0  0
   -0.6913   -1.9651    0.8695 H   0  0  0  0  0  0  0  0  0  0  0  0
  1  2  2  0
  2  3  1  0
  3  4  1  0
  4  5  1  0
  5  6  1  0
  6  7  1  0
  7  8  1  0
  8  9  1  0
  9  4  1  0
  9  5  1  0
  8  6  1  0
  2 10  1  0
  4 11  1  0
  5 12  1  0
  6 13  1  0
  8 14  1  0
  9 15  1  0
M  END
