
     RDKit          3D

 17 18  0  0  0  0  0  0  0  0999 V2000
   -3.7332   -0.2952    0.6545 O   0  0  0  0  0  0  0  0  0  0  0  0
   -3.2852   -0.6713   -0.4576 C   0  0  0  0  0  0  0  0  0  0  0  0
   -1.9732   -0.3883   -0.7968 O   0  0  0  0  0  0  0  0  0  0  0  0
   -1.1533    0.3213    0.1141 C   0  0  0  0  0  0  0  0  0  0  0  0
    0.2266    0.5382   -0.4126 C   0  0  0  0  0  0  0  0  0  0  0  0
    0.9768    1.2542    0.5612 O   0  0  0  0  0  0  0  0  0  0  0  0
    2.0462    0.7792   -0.2057 C   0  0  0  0  0  0  0  0  0  0  0  0
    2.6515   -0.5018   -0.2001 C   0  0  0  0  0  0  0  0  0  0  0  0
    1.2183   -0.5543    0.0068 C   0  0  0  0  0  0  0  0  0  0  0  0
   -3.9206   -1.2169   -1.1544 H   0  0  0  0  0  0  0  0  0  0  0  0
   -1.6015    1.3118    0.3239 H   0  0  0  0  0  0  0  0  0  0  0  0
   -1.0689   -0.2056    1.0930 H   0  0  0  0  0  0  0  0  0  0  0  0
    0.3039    0.8935   -1.4306 H   0  0  0  0  0  0  0  0  0  0  0  0
    1.9264    1.2289   -1.2422 H   0  0  0  0  0  0  0  0  0  0  0  0
    3.0003   -0.9942   -1.1503 H   0  0  0  0  0  0  0  0  0  0  0  0
    3.4070   -0.7216    0.6130 H   0  0  0  0  0  0  0  0  0  0  0  0
    0.9789   -0.7777    1.0959 H   0  0  0  0  0  0  0  0  0  0  0  0
  1  2  2  0
  2  3  1  0
  3  4  1  0
  4  5  1  0
  5  6  1  0
  6  7  1  0
  7  8  1  0
  8  9  1  0
  9  5  1  0
  9  7  1  0
  2 10  1  0
  4 11  1  0
  4 12  1  0
  5 13  1  0
  7 14  1  0
  8 15  1  0
  8 16  1  0
  9 17  1  0
M  END
