
     RDKit          3D

 17 18  0  0  0  0  0  0  0  0999 V2000
    3.0655    0.9514    1.2300 O   0  0  0  0  0  0  0  0  0  0  0  0
    2.8202    1.0800   -0.0017 C   0  0  0  0  0  0  0  0  0  0  0  0
    1.5360    0.7898   -0.3671 O   0  0  0  0  0  0  0  0  0  0  0  0
    0.4911    0.3819    0.4198 C   0  0  0  0  0  0  0  0  0  0  0  0
   -0.8684    0.9079    0.2540 C   0  0  0  0  0  0  0  0  0  0  0  0
   -1.3497   -0.4540   -0.1768 C   0  0  0  0  0  0  0  0  0  0  0  0
   -2.0386   -0.5833   -1.3658 O   0  0  0  0  0  0  0  0  0  0  0  0
   -1.1007   -1.5711    0.7330 C   0  0  0  0  0  0  0  0  0  0  0  0
    0.0201   -1.0059   -0.0123 C   0  0  0  0  0  0  0  0  0  0  0  0
    3.5914    1.3985   -0.6928 H   0  0  0  0  0  0  0  0  0  0  0  0
    0.8124    0.2981    1.4980 H   0  0  0  0  0  0  0  0  0  0  0  0
   -1.0528    1.7183   -0.4646 H   0  0  0  0  0  0  0  0  0  0  0  0
   -1.3444    1.1754    1.2211 H   0  0  0  0  0  0  0  0  0  0  0  0
   -2.3852    0.3105   -1.6061 H   0  0  0  0  0  0  0  0  0  0  0  0
   -1.1829   -1.3438    1.8342 H   0  0  0  0  0  0  0  0  0  0  0  0
   -1.5158   -2.5551    0.4784 H   0  0  0  0  0  0  0  0  0  0  0  0
    0.5019   -1.4985   -0.8554 H   0  0  0  0  0  0  0  0  0  0  0  0
  1  2  2  0
  2  3  1  0
  3  4  1  0
  4  5  1  0
  5  6  1  0
  6  7  1  0
  6  8  1  0
  8  9  1  0
  9  4  1  0
  9  6  1  0
  2 10  1  0
  4 11  1  0
  5 12  1  0
  5 13  1  0
  7 14  1  0
  8 15  1  0
  8 16  1  0
  9 17  1  0
M  END
