
     RDKit          3D

 15 16  0  0  0  0  0  0  0  0999 V2000
    2.9780   -0.4252   -1.5216 O   0  0  0  0  0  0  0  0  0  0  0  0
    2.8757    0.1384   -0.3992 C   0  0  0  0  0  0  0  0  0  0  0  0
    1.6376    0.2307    0.1655 O   0  0  0  0  0  0  0  0  0  0  0  0
    0.4537   -0.2735   -0.4408 C   0  0  0  0  0  0  0  0  0  0  0  0
   -0.4908   -0.8730    0.4334 C   0  0  0  0  0  0  0  0  0  0  0  0
   -1.4333   -0.2740    1.2651 O   0  0  0  0  0  0  0  0  0  0  0  0
   -2.1541   -0.1997    0.0392 C   0  0  0  0  0  0  0  0  0  0  0  0
   -0.8225    0.4138   -0.4235 C   0  0  0  0  0  0  0  0  0  0  0  0
   -0.6959    1.6355    0.2947 O   0  0  0  0  0  0  0  0  0  0  0  0
    3.7716    0.5276    0.0743 H   0  0  0  0  0  0  0  0  0  0  0  0
    0.6915   -0.7516   -1.4398 H   0  0  0  0  0  0  0  0  0  0  0  0
   -0.9592   -1.8260    0.0341 H   0  0  0  0  0  0  0  0  0  0  0  0
   -2.9632    0.5296    0.0321 H   0  0  0  0  0  0  0  0  0  0  0  0
   -2.4145   -1.1553   -0.4127 H   0  0  0  0  0  0  0  0  0  0  0  0
   -0.4745    2.3028   -0.4120 H   0  0  0  0  0  0  0  0  0  0  0  0
  1  2  2  0
  2  3  1  0
  3  4  1  0
  4  5  1  0
  5  6  1  0
  6  7  1  0
  7  8  1  0
  8  9  1  0
  8  4  1  0
  8  5  1  0
  2 10  1  0
  4 11  1  0
  5 12  1  0
  7 13  1  0
  7 14  1  0
  9 15  1  0
M  END
