
     RDKit          3D

 19 20  0  0  0  0  0  0  0  0999 V2000
   -3.7563    0.4811    0.1616 O   0  0  0  0  0  0  0  0  0  0  0  0
   -3.3188   -0.4263    0.8989 C   0  0  0  0  0  0  0  0  0  0  0  0
   -1.9570   -0.6539    0.9228 O   0  0  0  0  0  0  0  0  0  0  0  0
   -1.0851    0.1125    0.1403 C   0  0  0  0  0  0  0  0  0  0  0  0
    0.0573    0.7278    0.9581 C   0  0  0  0  0  0  0  0  0  0  0  0
    1.0023    0.0756    0.0129 C   0  0  0  0  0  0  0  0  0  0  0  0
    2.1405    0.6979   -0.6145 C   0  0  0  0  0  0  0  0  0  0  0  0
    2.3062   -0.4618    0.4073 C   0  0  0  0  0  0  0  0  0  0  0  0
   -0.0649   -0.6942   -0.6530 C   0  0  0  0  0  0  0  0  0  0  0  0
   -4.0184   -1.0089    1.4986 H   0  0  0  0  0  0  0  0  0  0  0  0
   -1.5236    0.8916   -0.4848 H   0  0  0  0  0  0  0  0  0  0  0  0
    0.1086    0.2373    1.9583 H   0  0  0  0  0  0  0  0  0  0  0  0
    0.0485    1.8168    0.9910 H   0  0  0  0  0  0  0  0  0  0  0  0
    2.5474    1.6916   -0.2842 H   0  0  0  0  0  0  0  0  0  0  0  0
    2.4637    0.4551   -1.6478 H   0  0  0  0  0  0  0  0  0  0  0  0
    2.6605   -0.1443    1.4327 H   0  0  0  0  0  0  0  0  0  0  0  0
    2.5998   -1.4320    0.0088 H   0  0  0  0  0  0  0  0  0  0  0  0
   -0.0466   -1.7770   -0.3642 H   0  0  0  0  0  0  0  0  0  0  0  0
   -0.1640   -0.5888   -1.7605 H   0  0  0  0  0  0  0  0  0  0  0  0
  1  2  2  0
  2  3  1  0
  3  4  1  0
  4  5  1  0
  5  6  1  0
  6  7  1  0
  7  8  1  0
  6  9  1  0
  9  4  1  0
  8  6  1  0
  2 10  1  0
  4 11  1  0
  5 12  1  0
  5 13  1  0
  7 14  1  0
  7 15  1  0
  8 16  1  0
  8 17  1  0
  9 18  1  0
  9 19  1  0
M  END
