
     RDKit          3D

 19 20  0  0  0  0  0  0  0  0999 V2000
    3.1164   -0.4473    1.3277 O   0  0  0  0  0  0  0  0  0  0  0  0
    2.9364    0.1801    0.2549 C   0  0  0  0  0  0  0  0  0  0  0  0
    1.6477    0.2384   -0.2289 O   0  0  0  0  0  0  0  0  0  0  0  0
    0.6135   -0.3830    0.4676 C   0  0  0  0  0  0  0  0  0  0  0  0
   -0.1814   -1.3581   -0.3481 C   0  0  0  0  0  0  0  0  0  0  0  0
   -1.5575   -0.7934   -0.5248 C   0  0  0  0  0  0  0  0  0  0  0  0
   -1.6574    0.4418    0.3075 C   0  0  0  0  0  0  0  0  0  0  0  0
   -0.8742    1.6211   -0.2196 C   0  0  0  0  0  0  0  0  0  0  0  0
   -0.3523    0.7031    0.9187 C   0  0  0  0  0  0  0  0  0  0  0  0
    3.7839    0.6564   -0.2623 H   0  0  0  0  0  0  0  0  0  0  0  0
    0.9528   -0.8926    1.3973 H   0  0  0  0  0  0  0  0  0  0  0  0
   -0.2858   -2.3374    0.1624 H   0  0  0  0  0  0  0  0  0  0  0  0
    0.3203   -1.5592   -1.3138 H   0  0  0  0  0  0  0  0  0  0  0  0
   -1.6857   -0.4948   -1.5980 H   0  0  0  0  0  0  0  0  0  0  0  0
   -2.3551   -1.5318   -0.2824 H   0  0  0  0  0  0  0  0  0  0  0  0
   -2.5796    0.6470    0.8937 H   0  0  0  0  0  0  0  0  0  0  0  0
   -1.2680    2.6133    0.0958 H   0  0  0  0  0  0  0  0  0  0  0  0
   -0.3561    1.5303   -1.1910 H   0  0  0  0  0  0  0  0  0  0  0  0
   -0.2180    1.1662    1.9068 H   0  0  0  0  0  0  0  0  0  0  0  0
  1  2  2  0
  2  3  1  0
  3  4  1  0
  4  5  1  0
  5  6  1  0
  6  7  1  0
  7  8  1  0
  8  9  1  0
  9  4  1  0
  9  7  1  0
  2 10  1  0
  4 11  1  0
  5 12  1  0
  5 13  1  0
  6 14  1  0
  6 15  1  0
  7 16  1  0
  8 17  1  0
  8 18  1  0
  9 19  1  0
M  END
