
     RDKit          3D

 16 16  0  0  0  0  0  0  0  0999 V2000
    2.5912    0.8061    1.8088 O   0  0  0  0  0  0  0  0  0  0  0  0
    2.8240    0.4568    0.6023 C   0  0  0  0  0  0  0  0  0  0  0  0
    1.6965    0.2531   -0.1741 O   0  0  0  0  0  0  0  0  0  0  0  0
    0.3773    0.4044    0.2781 C   0  0  0  0  0  0  0  0  0  0  0  0
   -0.2827   -0.9410    0.2656 C   0  0  0  0  0  0  0  0  0  0  0  0
   -1.4246   -0.7697   -0.7424 C   0  0  0  0  0  0  0  0  0  0  0  0
   -1.6259    0.7282   -0.6641 C   0  0  0  0  0  0  0  0  0  0  0  0
   -0.3749    1.2746   -0.4614 O   0  0  0  0  0  0  0  0  0  0  0  0
    3.8393    0.3365    0.2408 H   0  0  0  0  0  0  0  0  0  0  0  0
    0.4521    0.7135    1.3622 H   0  0  0  0  0  0  0  0  0  0  0  0
   -0.7371   -1.2013    1.2581 H   0  0  0  0  0  0  0  0  0  0  0  0
    0.3725   -1.7368   -0.1100 H   0  0  0  0  0  0  0  0  0  0  0  0
   -2.3033   -1.3424   -0.4544 H   0  0  0  0  0  0  0  0  0  0  0  0
   -1.0301   -1.0331   -1.7636 H   0  0  0  0  0  0  0  0  0  0  0  0
   -2.0367    1.1019   -1.6001 H   0  0  0  0  0  0  0  0  0  0  0  0
   -2.3376    0.9492    0.1544 H   0  0  0  0  0  0  0  0  0  0  0  0
  1  2  2  0
  2  3  1  0
  3  4  1  0
  4  5  1  0
  5  6  1  0
  6  7  1  0
  7  8  1  0
  8  4  1  0
  2  9  1  0
  4 10  1  0
  5 11  1  0
  5 12  1  0
  6 13  1  0
  6 14  1  0
  7 15  1  0
  7 16  1  0
M  END
