
     RDKit          3D

 19 19  0  0  0  0  0  0  0  0999 V2000
    2.9725    1.0106   -0.7903 O   0  0  0  0  0  0  0  0  0  0  0  0
    3.1511   -0.1142   -0.2151 C   0  0  0  0  0  0  0  0  0  0  0  0
    1.9759   -0.7491    0.1883 O   0  0  0  0  0  0  0  0  0  0  0  0
    0.6987   -0.2147   -0.0116 C   0  0  0  0  0  0  0  0  0  0  0  0
   -0.0294    0.0864    1.2360 C   0  0  0  0  0  0  0  0  0  0  0  0
   -1.2124    0.6729    1.0811 C   0  0  0  0  0  0  0  0  0  0  0  0
   -1.6302    0.9412   -0.3455 C   0  0  0  0  0  0  0  0  0  0  0  0
   -1.4678   -0.3171   -1.1421 C   0  0  0  0  0  0  0  0  0  0  0  0
   -0.1818   -1.0406   -0.8846 C   0  0  0  0  0  0  0  0  0  0  0  0
    4.1244   -0.5284   -0.0592 H   0  0  0  0  0  0  0  0  0  0  0  0
    0.8468    0.7742   -0.5362 H   0  0  0  0  0  0  0  0  0  0  0  0
    0.3257   -0.1321    2.2364 H   0  0  0  0  0  0  0  0  0  0  0  0
   -1.8569    0.9520    1.9053 H   0  0  0  0  0  0  0  0  0  0  0  0
   -2.6861    1.2556   -0.3857 H   0  0  0  0  0  0  0  0  0  0  0  0
   -1.0318    1.7899   -0.7455 H   0  0  0  0  0  0  0  0  0  0  0  0
   -1.5909   -0.1053   -2.2220 H   0  0  0  0  0  0  0  0  0  0  0  0
   -2.3391   -0.9806   -0.8753 H   0  0  0  0  0  0  0  0  0  0  0  0
    0.3180   -1.2594   -1.8727 H   0  0  0  0  0  0  0  0  0  0  0  0
   -0.3868   -2.0414   -0.4295 H   0  0  0  0  0  0  0  0  0  0  0  0
  1  2  2  0
  2  3  1  0
  3  4  1  0
  4  5  1  0
  5  6  2  0
  6  7  1  0
  7  8  1  0
  8  9  1  0
  9  4  1  0
  2 10  1  0
  4 11  1  0
  5 12  1  0
  6 13  1  0
  7 14  1  0
  7 15  1  0
  8 16  1  0
  8 17  1  0
  9 18  1  0
  9 19  1  0
M  END
