
     RDKit          3D

 15 15  0  0  0  0  0  0  0  0999 V2000
    2.5045   -0.9962   -0.1638 O   0  0  0  0  0  0  0  0  0  0  0  0
    2.8128    0.2052    0.0086 C   0  0  0  0  0  0  0  0  0  0  0  0
    1.8427    1.1673   -0.1072 O   0  0  0  0  0  0  0  0  0  0  0  0
    0.5194    0.8304   -0.4125 C   0  0  0  0  0  0  0  0  0  0  0  0
   -0.0631   -0.0533    0.6035 C   0  0  0  0  0  0  0  0  0  0  0  0
    0.6239   -0.3789    1.5598 O   0  0  0  0  0  0  0  0  0  0  0  0
   -1.4490   -0.5855    0.5475 C   0  0  0  0  0  0  0  0  0  0  0  0
   -2.1746   -0.5458   -0.7251 C   0  0  0  0  0  0  0  0  0  0  0  0
   -2.3728    0.5111    0.2327 O   0  0  0  0  0  0  0  0  0  0  0  0
    3.8427    0.4507    0.2456 H   0  0  0  0  0  0  0  0  0  0  0  0
    0.5027    0.2709   -1.3919 H   0  0  0  0  0  0  0  0  0  0  0  0
   -0.1140    1.7413   -0.4850 H   0  0  0  0  0  0  0  0  0  0  0  0
   -1.8116   -1.2402    1.3449 H   0  0  0  0  0  0  0  0  0  0  0  0
   -1.5652   -0.2672   -1.6213 H   0  0  0  0  0  0  0  0  0  0  0  0
   -3.0987   -1.1097   -0.8676 H   0  0  0  0  0  0  0  0  0  0  0  0
  1  2  2  0
  2  3  1  0
  3  4  1  0
  4  5  1  0
  5  6  2  0
  5  7  1  0
  7  8  1  0
  8  9  1  0
  9  7  1  0
  2 10  1  0
  4 11  1  0
  4 12  1  0
  7 13  1  0
  8 14  1  0
  8 15  1  0
M  END
