
     RDKit          3D

 17 18  0  0  0  0  0  0  0  0999 V2000
    3.6242   -0.2914   -0.8346 O   0  0  0  0  0  0  0  0  0  0  0  0
    3.2536    0.1279    0.3142 C   0  0  0  0  0  0  0  0  0  0  0  0
    1.8948    0.2169    0.5168 O   0  0  0  0  0  0  0  0  0  0  0  0
    0.9038   -0.1213   -0.4513 C   0  0  0  0  0  0  0  0  0  0  0  0
   -0.2565   -0.8224   -0.0979 C   0  0  0  0  0  0  0  0  0  0  0  0
   -1.5627   -1.1056   -0.6281 C   0  0  0  0  0  0  0  0  0  0  0  0
   -2.3289   -0.0433   -0.3740 C   0  0  0  0  0  0  0  0  0  0  0  0
   -1.4276    0.9564    0.3543 C   0  0  0  0  0  0  0  0  0  0  0  0
   -0.2339    0.6845   -0.5154 C   0  0  0  0  0  0  0  0  0  0  0  0
    3.9952    0.3872    1.0559 H   0  0  0  0  0  0  0  0  0  0  0  0
    1.4136   -0.4694   -1.4002 H   0  0  0  0  0  0  0  0  0  0  0  0
   -0.3070   -1.0290    1.0257 H   0  0  0  0  0  0  0  0  0  0  0  0
   -1.8726   -2.0245   -1.1458 H   0  0  0  0  0  0  0  0  0  0  0  0
   -3.3700    0.0863   -0.6286 H   0  0  0  0  0  0  0  0  0  0  0  0
   -1.8091    1.9715    0.2720 H   0  0  0  0  0  0  0  0  0  0  0  0
   -1.3455    0.5557    1.3809 H   0  0  0  0  0  0  0  0  0  0  0  0
   -0.5715    0.9205   -1.5751 H   0  0  0  0  0  0  0  0  0  0  0  0
  1  2  2  0
  2  3  1  0
  3  4  1  0
  4  5  1  0
  5  6  1  0
  6  7  2  0
  7  8  1  0
  8  9  1  0
  9  4  1  0
  9  5  1  0
  2 10  1  0
  4 11  1  0
  5 12  1  0
  6 13  1  0
  7 14  1  0
  8 15  1  0
  8 16  1  0
  9 17  1  0
M  END
