
     RDKit          3D

 18 18  0  0  0  0  0  0  0  0999 V2000
    2.8351   -0.4363    1.1743 O   0  0  0  0  0  0  0  0  0  0  0  0
    3.2023    0.2025    0.1647 C   0  0  0  0  0  0  0  0  0  0  0  0
    2.3807    0.2936   -0.9309 O   0  0  0  0  0  0  0  0  0  0  0  0
    1.1248   -0.3195   -0.9354 C   0  0  0  0  0  0  0  0  0  0  0  0
    0.2306    0.2370    0.1358 C   0  0  0  0  0  0  0  0  0  0  0  0
   -1.1247   -0.4617    0.0814 C   0  0  0  0  0  0  0  0  0  0  0  0
   -2.1995   -0.1205    1.0123 C   0  0  0  0  0  0  0  0  0  0  0  0
   -2.2430    0.4388   -0.3922 C   0  0  0  0  0  0  0  0  0  0  0  0
    4.1688    0.6996    0.1205 H   0  0  0  0  0  0  0  0  0  0  0  0
    0.6253   -0.2585   -1.9397 H   0  0  0  0  0  0  0  0  0  0  0  0
    1.2993   -1.4067   -0.7513 H   0  0  0  0  0  0  0  0  0  0  0  0
    0.1288    1.3388   -0.0925 H   0  0  0  0  0  0  0  0  0  0  0  0
    0.6114    0.0900    1.1451 H   0  0  0  0  0  0  0  0  0  0  0  0
   -1.0935   -1.4964   -0.3118 H   0  0  0  0  0  0  0  0  0  0  0  0
   -2.9660   -0.8896    1.2200 H   0  0  0  0  0  0  0  0  0  0  0  0
   -1.9985    0.5446    1.8582 H   0  0  0  0  0  0  0  0  0  0  0  0
   -2.9133    0.0075   -1.1337 H   0  0  0  0  0  0  0  0  0  0  0  0
   -2.0686    1.5369   -0.4247 H   0  0  0  0  0  0  0  0  0  0  0  0
  1  2  2  0
  2  3  1  0
  3  4  1  0
  4  5  1  0
  5  6  1  0
  6  7  1  0
  7  8  1  0
  8  6  1  0
  2  9  1  0
  4 10  1  0
  4 11  1  0
  5 12  1  0
  5 13  1  0
  6 14  1  0
  7 15  1  0
  7 16  1  0
  8 17  1  0
  8 18  1  0
M  END
