
     RDKit          3D

 15 15  0  0  0  0  0  0  0  0999 V2000
    2.8614   -0.9502    0.3240 O   0  0  0  0  0  0  0  0  0  0  0  0
    2.5048   -0.4582   -0.7779 C   0  0  0  0  0  0  0  0  0  0  0  0
    1.1665   -0.0943   -0.8732 O   0  0  0  0  0  0  0  0  0  0  0  0
    0.2599   -0.2745    0.2250 C   0  0  0  0  0  0  0  0  0  0  0  0
   -0.2967    1.1312    0.5031 C   0  0  0  0  0  0  0  0  0  0  0  0
   -1.0666    1.3166   -0.6455 O   0  0  0  0  0  0  0  0  0  0  0  0
   -1.8767    0.1553   -0.6498 C   0  0  0  0  0  0  0  0  0  0  0  0
   -0.9689   -0.9420   -0.2327 C   0  0  0  0  0  0  0  0  0  0  0  0
   -1.2147   -2.1175   -0.2724 O   0  0  0  0  0  0  0  0  0  0  0  0
    3.2001   -0.3211   -1.6170 H   0  0  0  0  0  0  0  0  0  0  0  0
    0.7335   -0.7102    1.0950 H   0  0  0  0  0  0  0  0  0  0  0  0
    0.5594    1.8146    0.5470 H   0  0  0  0  0  0  0  0  0  0  0  0
   -0.9101    1.1339    1.4259 H   0  0  0  0  0  0  0  0  0  0  0  0
   -2.2799   -0.0449   -1.6601 H   0  0  0  0  0  0  0  0  0  0  0  0
   -2.6720    0.3614    0.0988 H   0  0  0  0  0  0  0  0  0  0  0  0
  1  2  2  0
  2  3  1  0
  3  4  1  0
  4  5  1  0
  5  6  1  0
  6  7  1  0
  7  8  1  0
  8  9  2  0
  8  4  1  0
  2 10  1  0
  4 11  1  0
  5 12  1  0
  5 13  1  0
  7 14  1  0
  7 15  1  0
M  END
