
     RDKit          3D

 15 15  0  0  0  0  0  0  0  0999 V2000
    2.5854   -1.0341   -0.3042 O   0  0  0  0  0  0  0  0  0  0  0  0
    2.5574    0.1021    0.2328 C   0  0  0  0  0  0  0  0  0  0  0  0
    1.5279    1.0070   -0.0306 O   0  0  0  0  0  0  0  0  0  0  0  0
    0.4784    0.6894   -0.9063 C   0  0  0  0  0  0  0  0  0  0  0  0
   -0.2723   -0.5167   -0.4227 C   0  0  0  0  0  0  0  0  0  0  0  0
   -1.7030   -0.6252   -0.8866 C   0  0  0  0  0  0  0  0  0  0  0  0
   -1.9210    0.3042    0.2405 C   0  0  0  0  0  0  0  0  0  0  0  0
   -2.7712    1.2072    0.4683 O   0  0  0  0  0  0  0  0  0  0  0  0
   -0.8182   -0.2700    0.8597 O   0  0  0  0  0  0  0  0  0  0  0  0
    3.3370    0.3713    0.8996 H   0  0  0  0  0  0  0  0  0  0  0  0
   -0.1961    1.5685   -0.9634 H   0  0  0  0  0  0  0  0  0  0  0  0
    0.9022    0.5608   -1.9216 H   0  0  0  0  0  0  0  0  0  0  0  0
    0.2980   -1.4594   -0.5271 H   0  0  0  0  0  0  0  0  0  0  0  0
   -2.0777   -1.6537   -0.6460 H   0  0  0  0  0  0  0  0  0  0  0  0
   -1.9268   -0.2514   -1.8868 H   0  0  0  0  0  0  0  0  0  0  0  0
  1  2  2  0
  2  3  1  0
  3  4  1  0
  4  5  1  0
  5  6  1  0
  6  7  1  0
  7  8  2  0
  7  9  1  0
  9  5  1  0
  2 10  1  0
  4 11  1  0
  4 12  1  0
  5 13  1  0
  6 14  1  0
  6 15  1  0
M  END
