
     RDKit          3D

 17 16  0  0  0  0  0  0  0  0999 V2000
    2.5026   -0.0258    2.9553 O   0  0  0  0  0  0  0  0  0  0  0  0
    2.0955    0.8938    2.1915 C   0  0  0  0  0  0  0  0  0  0  0  0
    1.6564    0.5495    0.9281 O   0  0  0  0  0  0  0  0  0  0  0  0
    1.6682   -0.8049    0.5157 C   0  0  0  0  0  0  0  0  0  0  0  0
    1.1451   -0.9575   -0.8957 C   0  0  0  0  0  0  0  0  0  0  0  0
   -0.2494   -0.4464   -0.9470 C   0  0  0  0  0  0  0  0  0  0  0  0
   -1.3788   -0.0288   -0.9679 C   0  0  0  0  0  0  0  0  0  0  0  0
   -2.7512    0.4774   -0.9740 C   0  0  0  0  0  0  0  0  0  0  0  0
   -2.9896    1.2490   -2.1068 O   0  0  0  0  0  0  0  0  0  0  0  0
    2.1029    1.9334    2.5540 H   0  0  0  0  0  0  0  0  0  0  0  0
    0.9870   -1.3518    1.1916 H   0  0  0  0  0  0  0  0  0  0  0  0
    2.6648   -1.2681    0.6400 H   0  0  0  0  0  0  0  0  0  0  0  0
    1.7058   -0.4227   -1.6575 H   0  0  0  0  0  0  0  0  0  0  0  0
    1.1563   -2.0510   -1.1195 H   0  0  0  0  0  0  0  0  0  0  0  0
   -2.9003    1.0842   -0.0365 H   0  0  0  0  0  0  0  0  0  0  0  0
   -3.4968   -0.3368   -0.9474 H   0  0  0  0  0  0  0  0  0  0  0  0
   -3.9187    1.5065   -2.2150 H   0  0  0  0  0  0  0  0  0  0  0  0
  1  2  2  0
  2  3  1  0
  3  4  1  0
  4  5  1  0
  5  6  1  0
  6  7  3  0
  7  8  1  0
  8  9  1  0
  2 10  1  0
  4 11  1  0
  4 12  1  0
  5 13  1  0
  5 14  1  0
  8 15  1  0
  8 16  1  0
  9 17  1  0
M  END
