
     RDKit          3D

 17 18  0  0  0  0  0  0  0  0999 V2000
    2.4300   -1.8538   -0.6280 O   0  0  0  0  0  0  0  0  0  0  0  0
    2.6222   -0.7478   -0.0736 C   0  0  0  0  0  0  0  0  0  0  0  0
    1.5375    0.0706    0.1834 O   0  0  0  0  0  0  0  0  0  0  0  0
    0.2552   -0.3910   -0.1981 C   0  0  0  0  0  0  0  0  0  0  0  0
   -0.4403    0.6558   -1.0892 C   0  0  0  0  0  0  0  0  0  0  0  0
   -1.7641    0.7158   -0.4321 C   0  0  0  0  0  0  0  0  0  0  0  0
   -2.2772    1.4490    0.5191 O   0  0  0  0  0  0  0  0  0  0  0  0
   -1.1735    0.9492    0.9963 C   0  0  0  0  0  0  0  0  0  0  0  0
   -0.6101   -0.4230    1.0792 C   0  0  0  0  0  0  0  0  0  0  0  0
    3.6387   -0.4914    0.1762 H   0  0  0  0  0  0  0  0  0  0  0  0
    0.2643   -1.3776   -0.6701 H   0  0  0  0  0  0  0  0  0  0  0  0
   -0.5598    0.2245   -2.1051 H   0  0  0  0  0  0  0  0  0  0  0  0
    0.1420    1.5912   -1.0712 H   0  0  0  0  0  0  0  0  0  0  0  0
   -2.3240   -0.2615   -0.5698 H   0  0  0  0  0  0  0  0  0  0  0  0
   -0.3376    1.7148    1.0500 H   0  0  0  0  0  0  0  0  0  0  0  0
   -1.3878   -1.2028    0.8675 H   0  0  0  0  0  0  0  0  0  0  0  0
   -0.0157   -0.6221    1.9656 H   0  0  0  0  0  0  0  0  0  0  0  0
  1  2  2  0
  2  3  1  0
  3  4  1  0
  4  5  1  0
  5  6  1  0
  6  7  1  0
  7  8  1  0
  8  9  1  0
  9  4  1  0
  8  6  1  0
  2 10  1  0
  4 11  1  0
  5 12  1  0
  5 13  1  0
  6 14  1  0
  8 15  1  0
  9 16  1  0
  9 17  1  0
M  END
