
     RDKit          3D

 14 14  0  0  0  0  0  0  0  0999 V2000
    2.5595   -0.5573    1.2700 O   0  0  0  0  0  0  0  0  0  0  0  0
    2.5729   -0.1087    0.0962 C   0  0  0  0  0  0  0  0  0  0  0  0
    1.3188    0.1537   -0.4707 O   0  0  0  0  0  0  0  0  0  0  0  0
    0.1257   -0.0673    0.2201 C   0  0  0  0  0  0  0  0  0  0  0  0
   -0.9298   -0.8554   -0.5692 C   0  0  0  0  0  0  0  0  0  0  0  0
   -1.9377    0.0183    0.0719 C   0  0  0  0  0  0  0  0  0  0  0  0
   -3.0899   -0.0578    0.4140 O   0  0  0  0  0  0  0  0  0  0  0  0
   -0.8972    1.0694    0.1204 C   0  0  0  0  0  0  0  0  0  0  0  0
    3.4460    0.0811   -0.4828 H   0  0  0  0  0  0  0  0  0  0  0  0
    0.2867   -0.4579    1.2259 H   0  0  0  0  0  0  0  0  0  0  0  0
   -0.7979   -0.5995   -1.6500 H   0  0  0  0  0  0  0  0  0  0  0  0
   -0.9738   -1.9186   -0.3276 H   0  0  0  0  0  0  0  0  0  0  0  0
   -0.7673    1.5487   -0.8895 H   0  0  0  0  0  0  0  0  0  0  0  0
   -0.9160    1.7513    0.9711 H   0  0  0  0  0  0  0  0  0  0  0  0
  1  2  2  0
  2  3  1  0
  3  4  1  0
  4  5  1  0
  5  6  1  0
  6  7  2  0
  6  8  1  0
  8  4  1  0
  2  9  1  0
  4 10  1  0
  5 11  1  0
  5 12  1  0
  8 13  1  0
  8 14  1  0
M  END
