
     RDKit          3D

 17 17  0  0  0  0  0  0  0  0999 V2000
    2.6364    0.2079    1.5034 O   0  0  0  0  0  0  0  0  0  0  0  0
    2.7452    0.5445    0.3026 C   0  0  0  0  0  0  0  0  0  0  0  0
    1.5928    0.3812   -0.4349 O   0  0  0  0  0  0  0  0  0  0  0  0
    0.4410   -0.1095    0.1231 C   0  0  0  0  0  0  0  0  0  0  0  0
   -0.6837    0.9141   -0.0150 C   0  0  0  0  0  0  0  0  0  0  0  0
   -1.3596    1.2106    1.1466 O   0  0  0  0  0  0  0  0  0  0  0  0
   -1.3736   -0.0617   -0.9402 C   0  0  0  0  0  0  0  0  0  0  0  0
   -0.3757   -1.1342   -0.5521 C   0  0  0  0  0  0  0  0  0  0  0  0
   -0.9915   -2.0659    0.2804 O   0  0  0  0  0  0  0  0  0  0  0  0
    3.6774    0.9343   -0.1197 H   0  0  0  0  0  0  0  0  0  0  0  0
    0.5359   -0.3588    1.2229 H   0  0  0  0  0  0  0  0  0  0  0  0
   -0.3917    1.8540   -0.5297 H   0  0  0  0  0  0  0  0  0  0  0  0
   -2.2585    1.5343    0.9614 H   0  0  0  0  0  0  0  0  0  0  0  0
   -1.2989    0.2702   -2.0011 H   0  0  0  0  0  0  0  0  0  0  0  0
   -2.4067   -0.2450   -0.5991 H   0  0  0  0  0  0  0  0  0  0  0  0
   -0.0001   -1.6316   -1.4510 H   0  0  0  0  0  0  0  0  0  0  0  0
   -0.4888   -2.2443    1.1024 H   0  0  0  0  0  0  0  0  0  0  0  0
  1  2  2  0
  2  3  1  0
  3  4  1  0
  4  5  1  0
  5  6  1  0
  5  7  1  0
  7  8  1  0
  8  9  1  0
  8  4  1  0
  2 10  1  0
  4 11  1  0
  5 12  1  0
  6 13  1  0
  7 14  1  0
  7 15  1  0
  8 16  1  0
  9 17  1  0
M  END
