
     RDKit          3D

 15 15  0  0  0  0  0  0  0  0999 V2000
    2.7688   -1.5273   -0.5884 O   0  0  0  0  0  0  0  0  0  0  0  0
    2.7401   -0.2716   -0.6367 C   0  0  0  0  0  0  0  0  0  0  0  0
    1.4729    0.2612   -0.4028 O   0  0  0  0  0  0  0  0  0  0  0  0
    0.3376   -0.4687   -0.1412 C   0  0  0  0  0  0  0  0  0  0  0  0
   -0.9698   -0.0842   -0.7114 C   0  0  0  0  0  0  0  0  0  0  0  0
   -1.1801    0.7768    0.5084 C   0  0  0  0  0  0  0  0  0  0  0  0
   -2.4885    0.6913    0.9725 O   0  0  0  0  0  0  0  0  0  0  0  0
   -0.2148   -0.1082    1.2177 C   0  0  0  0  0  0  0  0  0  0  0  0
    0.0042   -0.3912    2.3729 O   0  0  0  0  0  0  0  0  0  0  0  0
    3.6036    0.3480   -0.8385 H   0  0  0  0  0  0  0  0  0  0  0  0
    0.5520   -1.5592   -0.1376 H   0  0  0  0  0  0  0  0  0  0  0  0
   -1.6831   -0.9456   -0.6932 H   0  0  0  0  0  0  0  0  0  0  0  0
   -1.0155    0.4025   -1.6793 H   0  0  0  0  0  0  0  0  0  0  0  0
   -0.8238    1.8033    0.4469 H   0  0  0  0  0  0  0  0  0  0  0  0
   -3.1038    1.0729    0.3108 H   0  0  0  0  0  0  0  0  0  0  0  0
  1  2  2  0
  2  3  1  0
  3  4  1  0
  4  5  1  0
  5  6  1  0
  6  7  1  0
  6  8  1  0
  8  9  2  0
  8  4  1  0
  2 10  1  0
  4 11  1  0
  5 12  1  0
  5 13  1  0
  6 14  1  0
  7 15  1  0
M  END
