
     RDKit          3D

 17 18  0  0  0  0  0  0  0  0999 V2000
    2.5682   -1.5089   -0.4152 O   0  0  0  0  0  0  0  0  0  0  0  0
    2.5481   -0.7830    0.5971 C   0  0  0  0  0  0  0  0  0  0  0  0
    1.4686    0.0478    0.7996 O   0  0  0  0  0  0  0  0  0  0  0  0
    0.3680    0.1458   -0.0571 C   0  0  0  0  0  0  0  0  0  0  0  0
   -0.4633   -1.0578   -0.3247 C   0  0  0  0  0  0  0  0  0  0  0  0
   -1.8069   -0.7237    0.1818 C   0  0  0  0  0  0  0  0  0  0  0  0
   -1.8467    0.5474    0.5028 C   0  0  0  0  0  0  0  0  0  0  0  0
   -0.6048    1.2876    0.2901 C   0  0  0  0  0  0  0  0  0  0  0  0
    0.1686    1.2950   -0.9635 C   0  0  0  0  0  0  0  0  0  0  0  0
    3.3351   -0.7593    1.3426 H   0  0  0  0  0  0  0  0  0  0  0  0
   -0.0471   -1.9777    0.1506 H   0  0  0  0  0  0  0  0  0  0  0  0
   -0.4869   -1.3068   -1.4272 H   0  0  0  0  0  0  0  0  0  0  0  0
   -2.6690   -1.4388    0.2815 H   0  0  0  0  0  0  0  0  0  0  0  0
   -2.7640    1.0151    0.9062 H   0  0  0  0  0  0  0  0  0  0  0  0
   -0.2678    2.0010    1.1029 H   0  0  0  0  0  0  0  0  0  0  0  0
    0.9165    2.0940   -1.0775 H   0  0  0  0  0  0  0  0  0  0  0  0
   -0.4164    1.1223   -1.8901 H   0  0  0  0  0  0  0  0  0  0  0  0
  1  2  2  0
  2  3  1  0
  3  4  1  0
  4  5  1  0
  5  6  1  0
  6  7  2  0
  7  8  1  0
  8  9  1  0
  8  4  1  0
  9  4  1  0
  2 10  1  0
  5 11  1  0
  5 12  1  0
  6 13  1  0
  7 14  1  0
  8 15  1  0
  9 16  1  0
  9 17  1  0
M  END
