
     RDKit          3D

 16 16  0  0  0  0  0  0  0  0999 V2000
    3.1614   -1.0652    0.4887 O   0  0  0  0  0  0  0  0  0  0  0  0
    2.9495   -0.0168   -0.1760 C   0  0  0  0  0  0  0  0  0  0  0  0
    1.6287    0.2738   -0.4849 O   0  0  0  0  0  0  0  0  0  0  0  0
    0.5620   -0.5774   -0.0676 C   0  0  0  0  0  0  0  0  0  0  0  0
   -0.7610   -0.0685   -0.5108 C   0  0  0  0  0  0  0  0  0  0  0  0
   -1.1813    1.2765   -0.0377 C   0  0  0  0  0  0  0  0  0  0  0  0
   -1.4443    0.6877    1.2187 O   0  0  0  0  0  0  0  0  0  0  0  0
   -1.8409   -0.4395    0.4987 C   0  0  0  0  0  0  0  0  0  0  0  0
    3.7430    0.6455   -0.5042 H   0  0  0  0  0  0  0  0  0  0  0  0
    0.5629   -0.7095    1.0345 H   0  0  0  0  0  0  0  0  0  0  0  0
    0.7285   -1.5715   -0.5343 H   0  0  0  0  0  0  0  0  0  0  0  0
   -1.0439   -0.3618   -1.5334 H   0  0  0  0  0  0  0  0  0  0  0  0
   -0.4351    2.0699   -0.0086 H   0  0  0  0  0  0  0  0  0  0  0  0
   -2.1612    1.5583   -0.4836 H   0  0  0  0  0  0  0  0  0  0  0  0
   -2.8696   -0.2942    0.1492 H   0  0  0  0  0  0  0  0  0  0  0  0
   -1.5987   -1.4072    0.9539 H   0  0  0  0  0  0  0  0  0  0  0  0
  1  2  2  0
  2  3  1  0
  3  4  1  0
  4  5  1  0
  5  6  1  0
  6  7  1  0
  7  8  1  0
  8  5  1  0
  2  9  1  0
  4 10  1  0
  4 11  1  0
  5 12  1  0
  6 13  1  0
  6 14  1  0
  8 15  1  0
  8 16  1  0
M  END
