
     RDKit          3D

 16 16  0  0  0  0  0  0  0  0999 V2000
    3.1891    0.0560   -1.1210 O   0  0  0  0  0  0  0  0  0  0  0  0
    2.9192   -0.4637   -0.0027 C   0  0  0  0  0  0  0  0  0  0  0  0
    1.6202   -0.4273    0.4859 O   0  0  0  0  0  0  0  0  0  0  0  0
    0.6452    0.2088   -0.3213 C   0  0  0  0  0  0  0  0  0  0  0  0
   -0.7179    0.1930    0.2956 C   0  0  0  0  0  0  0  0  0  0  0  0
   -0.8062    0.8323    1.5355 O   0  0  0  0  0  0  0  0  0  0  0  0
   -1.8349    0.5569   -0.6928 C   0  0  0  0  0  0  0  0  0  0  0  0
   -1.7399   -0.7947   -0.0395 C   0  0  0  0  0  0  0  0  0  0  0  0
    3.7419   -0.9203    0.5237 H   0  0  0  0  0  0  0  0  0  0  0  0
    0.6316   -0.1573   -1.3581 H   0  0  0  0  0  0  0  0  0  0  0  0
    0.9560    1.2921   -0.3865 H   0  0  0  0  0  0  0  0  0  0  0  0
   -0.2845    0.3851    2.2282 H   0  0  0  0  0  0  0  0  0  0  0  0
   -1.5870    0.5930   -1.7694 H   0  0  0  0  0  0  0  0  0  0  0  0
   -2.6124    1.2769   -0.3199 H   0  0  0  0  0  0  0  0  0  0  0  0
   -2.5311   -0.9795    0.7391 H   0  0  0  0  0  0  0  0  0  0  0  0
   -1.5893   -1.6513   -0.6981 H   0  0  0  0  0  0  0  0  0  0  0  0
  1  2  2  0
  2  3  1  0
  3  4  1  0
  4  5  1  0
  5  6  1  0
  5  7  1  0
  7  8  1  0
  8  5  1  0
  2  9  1  0
  4 10  1  0
  4 11  1  0
  6 12  1  0
  7 13  1  0
  7 14  1  0
  8 15  1  0
  8 16  1  0
M  END
