
     RDKit          3D

 17 17  0  0  0  0  0  0  0  0999 V2000
    2.9604   -0.2282   -0.9171 O   0  0  0  0  0  0  0  0  0  0  0  0
    2.6399   -0.1917    0.2917 C   0  0  0  0  0  0  0  0  0  0  0  0
    1.2869   -0.0095    0.5222 O   0  0  0  0  0  0  0  0  0  0  0  0
    0.3501    0.1234   -0.4919 C   0  0  0  0  0  0  0  0  0  0  0  0
   -0.4819    1.3633   -0.4394 C   0  0  0  0  0  0  0  0  0  0  0  0
   -1.6512    0.9839    0.3637 C   0  0  0  0  0  0  0  0  0  0  0  0
   -1.7655   -0.3079    0.4503 C   0  0  0  0  0  0  0  0  0  0  0  0
   -0.6818   -0.9726   -0.2874 C   0  0  0  0  0  0  0  0  0  0  0  0
   -0.1475   -2.0615    0.4011 O   0  0  0  0  0  0  0  0  0  0  0  0
    3.3562   -0.2935    1.1106 H   0  0  0  0  0  0  0  0  0  0  0  0
    0.7927    0.0694   -1.5240 H   0  0  0  0  0  0  0  0  0  0  0  0
   -0.7853    1.6864   -1.4776 H   0  0  0  0  0  0  0  0  0  0  0  0
    0.0185    2.2111    0.0789 H   0  0  0  0  0  0  0  0  0  0  0  0
   -2.3410    1.7048    0.8313 H   0  0  0  0  0  0  0  0  0  0  0  0
   -2.5609   -0.8801    0.9986 H   0  0  0  0  0  0  0  0  0  0  0  0
   -1.0795   -1.3613   -1.2455 H   0  0  0  0  0  0  0  0  0  0  0  0
    0.0899   -1.8361    1.3347 H   0  0  0  0  0  0  0  0  0  0  0  0
  1  2  2  0
  2  3  1  0
  3  4  1  0
  4  5  1  0
  5  6  1  0
  6  7  2  0
  7  8  1  0
  8  9  1  0
  8  4  1  0
  2 10  1  0
  4 11  1  0
  5 12  1  0
  5 13  1  0
  6 14  1  0
  7 15  1  0
  8 16  1  0
  9 17  1  0
M  END
