
     RDKit          3D

 17 18  0  0  0  0  0  0  0  0999 V2000
    3.3618    0.2335    0.8558 O   0  0  0  0  0  0  0  0  0  0  0  0
    2.9175    0.1937   -0.3324 C   0  0  0  0  0  0  0  0  0  0  0  0
    1.5376    0.1767   -0.4734 O   0  0  0  0  0  0  0  0  0  0  0  0
    0.6878    0.2023    0.6380 C   0  0  0  0  0  0  0  0  0  0  0  0
   -0.6246    0.8919    0.5935 C   0  0  0  0  0  0  0  0  0  0  0  0
   -1.4259    0.9016   -0.6823 C   0  0  0  0  0  0  0  0  0  0  0  0
   -1.4299   -0.6137   -0.6257 C   0  0  0  0  0  0  0  0  0  0  0  0
   -0.5647   -0.5862    0.5918 C   0  0  0  0  0  0  0  0  0  0  0  0
   -0.9009   -1.3312    1.7030 O   0  0  0  0  0  0  0  0  0  0  0  0
    3.5998    0.1745   -1.1790 H   0  0  0  0  0  0  0  0  0  0  0  0
    1.1990    0.2365    1.6192 H   0  0  0  0  0  0  0  0  0  0  0  0
   -1.0518    1.3554    1.4986 H   0  0  0  0  0  0  0  0  0  0  0  0
   -0.8627    1.2466   -1.5916 H   0  0  0  0  0  0  0  0  0  0  0  0
   -2.4320    1.3247   -0.5624 H   0  0  0  0  0  0  0  0  0  0  0  0
   -2.4410   -1.0383   -0.3579 H   0  0  0  0  0  0  0  0  0  0  0  0
   -1.0441   -1.1265   -1.5134 H   0  0  0  0  0  0  0  0  0  0  0  0
   -0.5261   -2.2415    1.5640 H   0  0  0  0  0  0  0  0  0  0  0  0
  1  2  2  0
  2  3  1  0
  3  4  1  0
  4  5  1  0
  5  6  1  0
  6  7  1  0
  7  8  1  0
  8  9  1  0
  8  4  1  0
  8  5  1  0
  2 10  1  0
  4 11  1  0
  5 12  1  0
  6 13  1  0
  6 14  1  0
  7 15  1  0
  7 16  1  0
  9 17  1  0
M  END
