
     RDKit          3D

 15 15  0  0  0  0  0  0  0  0999 V2000
    1.8279   -1.4582    0.5469 O   0  0  0  0  0  0  0  0  0  0  0  0
    2.1168   -0.2647    0.7963 C   0  0  0  0  0  0  0  0  0  0  0  0
    1.1488    0.6663    0.5078 O   0  0  0  0  0  0  0  0  0  0  0  0
   -0.0845    0.3941   -0.0202 C   0  0  0  0  0  0  0  0  0  0  0  0
   -0.9108    1.6293   -0.2266 C   0  0  0  0  0  0  0  0  0  0  0  0
   -0.4355    2.7003    0.0773 O   0  0  0  0  0  0  0  0  0  0  0  0
   -0.2483   -0.5208   -1.1682 C   0  0  0  0  0  0  0  0  0  0  0  0
   -1.5186   -0.8692   -0.6467 O   0  0  0  0  0  0  0  0  0  0  0  0
   -0.9432   -0.6677    0.6314 C   0  0  0  0  0  0  0  0  0  0  0  0
    3.0960    0.0135    1.2237 H   0  0  0  0  0  0  0  0  0  0  0  0
   -1.9170    1.5773   -0.6397 H   0  0  0  0  0  0  0  0  0  0  0  0
   -0.3659    0.0750   -2.1217 H   0  0  0  0  0  0  0  0  0  0  0  0
    0.3470   -1.4215   -1.2503 H   0  0  0  0  0  0  0  0  0  0  0  0
   -0.4483   -1.5859    0.9341 H   0  0  0  0  0  0  0  0  0  0  0  0
   -1.6644   -0.2679    1.3559 H   0  0  0  0  0  0  0  0  0  0  0  0
  1  2  2  0
  2  3  1  0
  3  4  1  0
  4  5  1  0
  5  6  2  0
  4  7  1  0
  7  8  1  0
  8  9  1  0
  9  4  1  0
  2 10  1  0
  5 11  1  0
  7 12  1  0
  7 13  1  0
  9 14  1  0
  9 15  1  0
M  END
