
     RDKit          3D

 15 15  0  0  0  0  0  0  0  0999 V2000
    2.7818   -0.4627   -0.8927 O   0  0  0  0  0  0  0  0  0  0  0  0
    2.5993    0.7559   -0.7007 C   0  0  0  0  0  0  0  0  0  0  0  0
    1.5713    1.1757    0.0900 O   0  0  0  0  0  0  0  0  0  0  0  0
    0.6619    0.3167    0.7338 C   0  0  0  0  0  0  0  0  0  0  0  0
   -0.1140   -0.5489   -0.2182 C   0  0  0  0  0  0  0  0  0  0  0  0
   -0.9197    0.0674   -1.1854 O   0  0  0  0  0  0  0  0  0  0  0  0
   -1.5318   -0.8120   -0.1251 C   0  0  0  0  0  0  0  0  0  0  0  0
   -2.4969   -0.0171    0.6226 C   0  0  0  0  0  0  0  0  0  0  0  0
   -2.2503    1.0277    1.2002 O   0  0  0  0  0  0  0  0  0  0  0  0
    3.2912    1.4367   -1.1893 H   0  0  0  0  0  0  0  0  0  0  0  0
    1.2717   -0.3925    1.3676 H   0  0  0  0  0  0  0  0  0  0  0  0
    0.0680    0.9057    1.4252 H   0  0  0  0  0  0  0  0  0  0  0  0
    0.5125   -1.3541   -0.6669 H   0  0  0  0  0  0  0  0  0  0  0  0
   -1.9220   -1.7402   -0.5942 H   0  0  0  0  0  0  0  0  0  0  0  0
   -3.5227   -0.3584    0.6867 H   0  0  0  0  0  0  0  0  0  0  0  0
  1  2  2  0
  2  3  1  0
  3  4  1  0
  4  5  1  0
  5  6  1  0
  6  7  1  0
  7  8  1  0
  8  9  2  0
  7  5  1  0
  2 10  1  0
  4 11  1  0
  4 12  1  0
  5 13  1  0
  7 14  1  0
  8 15  1  0
M  END
