
     RDKit          3D

 17 17  0  0  0  0  0  0  0  0999 V2000
    3.3234    0.1430   -1.1756 O   0  0  0  0  0  0  0  0  0  0  0  0
    2.6969   -0.9470   -1.1191 C   0  0  0  0  0  0  0  0  0  0  0  0
    1.3888   -0.9318   -0.6571 O   0  0  0  0  0  0  0  0  0  0  0  0
    0.8117    0.3113   -0.2677 C   0  0  0  0  0  0  0  0  0  0  0  0
   -0.6174    0.1175    0.2054 C   0  0  0  0  0  0  0  0  0  0  0  0
   -0.7581   -0.7769    1.3575 C   0  0  0  0  0  0  0  0  0  0  0  0
   -1.8133   -1.0657    1.8908 O   0  0  0  0  0  0  0  0  0  0  0  0
   -1.7201    0.0446   -0.7910 C   0  0  0  0  0  0  0  0  0  0  0  0
   -1.5063    1.2804   -0.0047 C   0  0  0  0  0  0  0  0  0  0  0  0
    3.1990   -1.8527   -1.4314 H   0  0  0  0  0  0  0  0  0  0  0  0
    1.3852    0.6925    0.6055 H   0  0  0  0  0  0  0  0  0  0  0  0
    0.8870    1.0686   -1.0559 H   0  0  0  0  0  0  0  0  0  0  0  0
    0.1226   -1.2305    1.7896 H   0  0  0  0  0  0  0  0  0  0  0  0
   -1.3911   -0.0322   -1.8449 H   0  0  0  0  0  0  0  0  0  0  0  0
   -2.6220   -0.5401   -0.5399 H   0  0  0  0  0  0  0  0  0  0  0  0
   -2.2729    1.5744    0.7618 H   0  0  0  0  0  0  0  0  0  0  0  0
   -1.1133    2.1446   -0.5662 H   0  0  0  0  0  0  0  0  0  0  0  0
  1  2  2  0
  2  3  1  0
  3  4  1  0
  4  5  1  0
  5  6  1  0
  6  7  2  0
  5  8  1  0
  8  9  1  0
  9  5  1  0
  2 10  1  0
  4 11  1  0
  4 12  1  0
  6 13  1  0
  8 14  1  0
  8 15  1  0
  9 16  1  0
  9 17  1  0
M  END
