
     RDKit          3D

 15 15  0  0  0  0  0  0  0  0999 V2000
    2.8124   -0.8525   -0.8360 O   0  0  0  0  0  0  0  0  0  0  0  0
    2.4486    0.2224   -0.2912 C   0  0  0  0  0  0  0  0  0  0  0  0
    1.1344    0.3316    0.0947 O   0  0  0  0  0  0  0  0  0  0  0  0
    0.1528   -0.6538   -0.0644 C   0  0  0  0  0  0  0  0  0  0  0  0
   -1.0082    0.0035   -0.8275 C   0  0  0  0  0  0  0  0  0  0  0  0
   -1.4246    1.0054    0.2461 C   0  0  0  0  0  0  0  0  0  0  0  0
   -1.3510    0.2433    1.4101 O   0  0  0  0  0  0  0  0  0  0  0  0
   -0.5243   -0.8673    1.2521 C   0  0  0  0  0  0  0  0  0  0  0  0
   -0.3989   -1.8184    2.0551 O   0  0  0  0  0  0  0  0  0  0  0  0
    3.1526    1.0462   -0.1280 H   0  0  0  0  0  0  0  0  0  0  0  0
    0.4832   -1.5734   -0.5354 H   0  0  0  0  0  0  0  0  0  0  0  0
   -1.7637   -0.7820   -0.9499 H   0  0  0  0  0  0  0  0  0  0  0  0
   -0.6691    0.4775   -1.7449 H   0  0  0  0  0  0  0  0  0  0  0  0
   -2.4177    1.4430    0.0415 H   0  0  0  0  0  0  0  0  0  0  0  0
   -0.6264    1.7745    0.2777 H   0  0  0  0  0  0  0  0  0  0  0  0
  1  2  2  0
  2  3  1  0
  3  4  1  0
  4  5  1  0
  5  6  1  0
  6  7  1  0
  7  8  1  0
  8  9  2  0
  8  4  1  0
  2 10  1  0
  4 11  1  0
  5 12  1  0
  5 13  1  0
  6 14  1  0
  6 15  1  0
M  END
