
     RDKit          3D

 17 18  0  0  0  0  0  0  0  0999 V2000
    3.5371    0.8551   -0.8186 O   0  0  0  0  0  0  0  0  0  0  0  0
    3.4502    0.1296    0.2020 C   0  0  0  0  0  0  0  0  0  0  0  0
    2.2040   -0.3628    0.5477 O   0  0  0  0  0  0  0  0  0  0  0  0
    1.1209   -0.0243   -0.2568 C   0  0  0  0  0  0  0  0  0  0  0  0
   -0.1890   -0.5909    0.1772 C   0  0  0  0  0  0  0  0  0  0  0  0
   -1.4371   -0.3406   -0.5447 C   0  0  0  0  0  0  0  0  0  0  0  0
   -2.7795   -0.2754    0.1095 C   0  0  0  0  0  0  0  0  0  0  0  0
   -2.2418   -0.1155    1.3806 O   0  0  0  0  0  0  0  0  0  0  0  0
   -1.1099    0.4111    0.7875 C   0  0  0  0  0  0  0  0  0  0  0  0
    4.3557   -0.0681    0.7517 H   0  0  0  0  0  0  0  0  0  0  0  0
    1.2574   -0.3306   -1.3236 H   0  0  0  0  0  0  0  0  0  0  0  0
    1.0416    1.0790   -0.2827 H   0  0  0  0  0  0  0  0  0  0  0  0
   -0.1420   -1.5693    0.7424 H   0  0  0  0  0  0  0  0  0  0  0  0
   -1.3462    0.2776   -1.4724 H   0  0  0  0  0  0  0  0  0  0  0  0
   -3.4038   -1.1910    0.0372 H   0  0  0  0  0  0  0  0  0  0  0  0
   -3.3513    0.6358   -0.1737 H   0  0  0  0  0  0  0  0  0  0  0  0
   -0.9663    1.4802    0.6702 H   0  0  0  0  0  0  0  0  0  0  0  0
  1  2  2  0
  2  3  1  0
  3  4  1  0
  4  5  1  0
  5  6  1  0
  6  7  1  0
  7  8  1  0
  8  9  1  0
  9  5  1  0
  9  6  1  0
  2 10  1  0
  4 11  1  0
  4 12  1  0
  5 13  1  0
  6 14  1  0
  7 15  1  0
  7 16  1  0
  9 17  1  0
M  END
