
     RDKit          3D

 15 15  0  0  0  0  0  0  0  0999 V2000
    2.7296    0.6965   -1.4787 O   0  0  0  0  0  0  0  0  0  0  0  0
    3.0623   -0.5700   -1.0812 C   0  0  0  0  0  0  0  0  0  0  0  0
    2.3977   -0.7177    0.0850 O   0  0  0  0  0  0  0  0  0  0  0  0
    1.7602   -0.7191    1.1038 C   0  0  0  0  0  0  0  0  0  0  0  0
    0.2411   -0.3944    0.9114 C   0  0  0  0  0  0  0  0  0  0  0  0
   -0.9742   -0.1259    0.7727 C   0  0  0  0  0  0  0  0  0  0  0  0
   -2.3376    0.1945    0.6327 C   0  0  0  0  0  0  0  0  0  0  0  0
   -2.7038    1.0854   -0.4628 C   0  0  0  0  0  0  0  0  0  0  0  0
   -3.0046   -0.2806   -0.5464 O   0  0  0  0  0  0  0  0  0  0  0  0
    3.6894   -1.1332   -1.6731 H   0  0  0  0  0  0  0  0  0  0  0  0
    1.6553   -1.6167    1.7763 H   0  0  0  0  0  0  0  0  0  0  0  0
    2.0669    0.0977    1.8737 H   0  0  0  0  0  0  0  0  0  0  0  0
   -3.0028    0.2311    1.5541 H   0  0  0  0  0  0  0  0  0  0  0  0
   -3.6427    1.7168   -0.3472 H   0  0  0  0  0  0  0  0  0  0  0  0
   -1.9368    1.5355   -1.0721 H   0  0  0  0  0  0  0  0  0  0  0  0
  1  2  2  0
  2  3  1  0
  3  4  1  0
  4  5  1  0
  5  6  3  0
  6  7  1  0
  7  8  1  0
  8  9  1  0
  9  7  1  0
  2 10  1  0
  4 11  1  0
  4 12  1  0
  7 13  1  0
  8 14  1  0
  8 15  1  0
M  END
