
     RDKit          3D

 17 18  0  0  0  0  0  0  0  0999 V2000
    3.1233   -0.4834   -1.3165 O   0  0  0  0  0  0  0  0  0  0  0  0
    2.8973   -0.5470   -0.0777 C   0  0  0  0  0  0  0  0  0  0  0  0
    1.5847   -0.4305    0.3272 O   0  0  0  0  0  0  0  0  0  0  0  0
    0.5133   -0.2474   -0.5741 C   0  0  0  0  0  0  0  0  0  0  0  0
   -0.3885   -1.3154   -0.3184 O   0  0  0  0  0  0  0  0  0  0  0  0
   -1.4464   -0.7017    0.2909 C   0  0  0  0  0  0  0  0  0  0  0  0
   -0.8075    0.3235    1.2407 C   0  0  0  0  0  0  0  0  0  0  0  0
   -0.3113    0.8994   -0.0931 C   0  0  0  0  0  0  0  0  0  0  0  0
   -1.6886    0.5088   -0.6223 C   0  0  0  0  0  0  0  0  0  0  0  0
    3.6822   -0.6869    0.6627 H   0  0  0  0  0  0  0  0  0  0  0  0
    0.8110   -0.2053   -1.6227 H   0  0  0  0  0  0  0  0  0  0  0  0
   -2.2897   -1.2340    0.6374 H   0  0  0  0  0  0  0  0  0  0  0  0
   -1.5134    0.9742    1.7474 H   0  0  0  0  0  0  0  0  0  0  0  0
    0.0424   -0.0763    1.8045 H   0  0  0  0  0  0  0  0  0  0  0  0
    0.0039    1.8937   -0.1347 H   0  0  0  0  0  0  0  0  0  0  0  0
   -2.5042    1.1670   -0.2896 H   0  0  0  0  0  0  0  0  0  0  0  0
   -1.7087    0.1614   -1.6618 H   0  0  0  0  0  0  0  0  0  0  0  0
  1  2  2  0
  2  3  1  0
  3  4  1  0
  4  5  1  0
  5  6  1  0
  6  7  1  0
  7  8  1  0
  8  9  1  0
  8  4  1  0
  9  6  1  0
  2 10  1  0
  4 11  1  0
  6 12  1  0
  7 13  1  0
  7 14  1  0
  8 15  1  0
  9 16  1  0
  9 17  1  0
M  END
