
     RDKit          3D

 15 15  0  0  0  0  0  0  0  0999 V2000
   -1.6552   -1.7497    1.2342 O   0  0  0  0  0  0  0  0  0  0  0  0
   -2.0754   -1.3962    0.1082 C   0  0  0  0  0  0  0  0  0  0  0  0
   -1.4228   -0.3463   -0.5170 O   0  0  0  0  0  0  0  0  0  0  0  0
   -0.3324    0.2822    0.1096 C   0  0  0  0  0  0  0  0  0  0  0  0
   -0.6744    1.7023    0.2966 C   0  0  0  0  0  0  0  0  0  0  0  0
   -1.7409    2.1245   -0.0706 O   0  0  0  0  0  0  0  0  0  0  0  0
    0.9324    0.1875   -0.7124 C   0  0  0  0  0  0  0  0  0  0  0  0
    2.1613   -0.3172   -0.0557 C   0  0  0  0  0  0  0  0  0  0  0  0
    1.4497   -1.0461   -1.0325 O   0  0  0  0  0  0  0  0  0  0  0  0
   -2.9067   -1.8508   -0.4062 H   0  0  0  0  0  0  0  0  0  0  0  0
   -0.1194   -0.1796    1.0998 H   0  0  0  0  0  0  0  0  0  0  0  0
    0.0264    2.3662    0.7611 H   0  0  0  0  0  0  0  0  0  0  0  0
    1.0931    1.0435   -1.4056 H   0  0  0  0  0  0  0  0  0  0  0  0
    3.1637    0.0146   -0.3492 H   0  0  0  0  0  0  0  0  0  0  0  0
    2.1006   -0.8348    0.9397 H   0  0  0  0  0  0  0  0  0  0  0  0
  1  2  2  0
  2  3  1  0
  3  4  1  0
  4  5  1  0
  5  6  2  0
  4  7  1  0
  7  8  1  0
  8  9  1  0
  9  7  1  0
  2 10  1  0
  4 11  1  0
  5 12  1  0
  7 13  1  0
  8 14  1  0
  8 15  1  0
M  END
