
     RDKit          3D

 17 17  0  0  0  0  0  0  0  0999 V2000
    3.1042    0.8001    0.8940 O   0  0  0  0  0  0  0  0  0  0  0  0
    2.9410    0.0308   -0.1036 C   0  0  0  0  0  0  0  0  0  0  0  0
    1.6758   -0.4146   -0.4574 O   0  0  0  0  0  0  0  0  0  0  0  0
    0.5812   -0.0087    0.2946 C   0  0  0  0  0  0  0  0  0  0  0  0
   -0.4117    0.7958   -0.5546 C   0  0  0  0  0  0  0  0  0  0  0  0
   -1.6580    0.6816    0.2993 C   0  0  0  0  0  0  0  0  0  0  0  0
   -1.7150   -0.8395    0.4852 C   0  0  0  0  0  0  0  0  0  0  0  0
   -0.2807   -1.1356    0.7457 C   0  0  0  0  0  0  0  0  0  0  0  0
    0.1114   -2.1658    1.2589 O   0  0  0  0  0  0  0  0  0  0  0  0
    3.7642   -0.3107   -0.7177 H   0  0  0  0  0  0  0  0  0  0  0  0
    0.8812    0.6509    1.1195 H   0  0  0  0  0  0  0  0  0  0  0  0
   -0.0742    1.8431   -0.6649 H   0  0  0  0  0  0  0  0  0  0  0  0
   -0.5733    0.2663   -1.4943 H   0  0  0  0  0  0  0  0  0  0  0  0
   -2.5504    1.0672   -0.1905 H   0  0  0  0  0  0  0  0  0  0  0  0
   -1.4365    1.1283    1.2851 H   0  0  0  0  0  0  0  0  0  0  0  0
   -1.9731   -1.2490   -0.5170 H   0  0  0  0  0  0  0  0  0  0  0  0
   -2.3862   -1.1402    1.2847 H   0  0  0  0  0  0  0  0  0  0  0  0
  1  2  2  0
  2  3  1  0
  3  4  1  0
  4  5  1  0
  5  6  1  0
  6  7  1  0
  7  8  1  0
  8  9  2  0
  8  4  1  0
  2 10  1  0
  4 11  1  0
  5 12  1  0
  5 13  1  0
  6 14  1  0
  6 15  1  0
  7 16  1  0
  7 17  1  0
M  END
