
     RDKit          3D

 15 15  0  0  0  0  0  0  0  0999 V2000
    3.2768   -0.5598    0.2081 O   0  0  0  0  0  0  0  0  0  0  0  0
    2.6648   -0.2432   -0.8531 C   0  0  0  0  0  0  0  0  0  0  0  0
    1.3018   -0.0365   -0.7569 O   0  0  0  0  0  0  0  0  0  0  0  0
    0.5934   -0.1603    0.4337 C   0  0  0  0  0  0  0  0  0  0  0  0
   -0.8615    0.1382    0.1522 C   0  0  0  0  0  0  0  0  0  0  0  0
   -1.2915    1.5348    0.2449 C   0  0  0  0  0  0  0  0  0  0  0  0
   -2.4455    1.8568    0.0330 O   0  0  0  0  0  0  0  0  0  0  0  0
   -1.8074   -0.9690    0.5720 C   0  0  0  0  0  0  0  0  0  0  0  0
   -1.5592   -0.6379   -0.7590 O   0  0  0  0  0  0  0  0  0  0  0  0
    3.1823   -0.1360   -1.8054 H   0  0  0  0  0  0  0  0  0  0  0  0
    0.9094    0.5797    1.2210 H   0  0  0  0  0  0  0  0  0  0  0  0
    0.7293   -1.1573    0.9201 H   0  0  0  0  0  0  0  0  0  0  0  0
   -0.6040    2.3227    0.5028 H   0  0  0  0  0  0  0  0  0  0  0  0
   -1.3717   -1.9432    0.8687 H   0  0  0  0  0  0  0  0  0  0  0  0
   -2.7169   -0.5889    1.0714 H   0  0  0  0  0  0  0  0  0  0  0  0
  1  2  2  0
  2  3  1  0
  3  4  1  0
  4  5  1  0
  5  6  1  0
  6  7  2  0
  5  8  1  0
  8  9  1  0
  9  5  1  0
  2 10  1  0
  4 11  1  0
  4 12  1  0
  6 13  1  0
  8 14  1  0
  8 15  1  0
M  END
