
     RDKit          3D

 16 16  0  0  0  0  0  0  0  0999 V2000
    2.8161   -1.0255    0.6200 O   0  0  0  0  0  0  0  0  0  0  0  0
    2.7213    0.1133    0.0990 C   0  0  0  0  0  0  0  0  0  0  0  0
    1.4494    0.5963   -0.1541 O   0  0  0  0  0  0  0  0  0  0  0  0
    0.3470   -0.1891    0.1748 C   0  0  0  0  0  0  0  0  0  0  0  0
   -0.5259   -0.4362   -1.0394 C   0  0  0  0  0  0  0  0  0  0  0  0
   -1.9130   -0.4462   -0.4482 C   0  0  0  0  0  0  0  0  0  0  0  0
   -1.8033   -0.2005    0.8961 O   0  0  0  0  0  0  0  0  0  0  0  0
   -0.6194    0.4989    1.1102 C   0  0  0  0  0  0  0  0  0  0  0  0
    3.6286    0.6584   -0.1255 H   0  0  0  0  0  0  0  0  0  0  0  0
    0.6079   -1.1640    0.6255 H   0  0  0  0  0  0  0  0  0  0  0  0
   -0.2731   -1.3591   -1.5717 H   0  0  0  0  0  0  0  0  0  0  0  0
   -0.4368    0.4093   -1.7818 H   0  0  0  0  0  0  0  0  0  0  0  0
   -2.4344   -1.4151   -0.6236 H   0  0  0  0  0  0  0  0  0  0  0  0
   -2.5704    0.3509   -0.9024 H   0  0  0  0  0  0  0  0  0  0  0  0
   -0.6997    1.5734    0.9543 H   0  0  0  0  0  0  0  0  0  0  0  0
   -0.2942    0.3371    2.1668 H   0  0  0  0  0  0  0  0  0  0  0  0
  1  2  2  0
  2  3  1  0
  3  4  1  0
  4  5  1  0
  5  6  1  0
  6  7  1  0
  7  8  1  0
  8  4  1  0
  2  9  1  0
  4 10  1  0
  5 11  1  0
  5 12  1  0
  6 13  1  0
  6 14  1  0
  8 15  1  0
  8 16  1  0
M  END
