
     RDKit          3D

 15 16  0  0  0  0  0  0  0  0999 V2000
   -3.0075    0.0235   -0.8152 O   0  0  0  0  0  0  0  0  0  0  0  0
   -2.8581   -0.3131    0.3820 C   0  0  0  0  0  0  0  0  0  0  0  0
   -1.5656   -0.3797    0.8674 O   0  0  0  0  0  0  0  0  0  0  0  0
   -0.4972   -0.0766    0.0268 C   0  0  0  0  0  0  0  0  0  0  0  0
    0.6126    0.7427    0.5764 C   0  0  0  0  0  0  0  0  0  0  0  0
    0.9815   -0.3516    1.3307 O   0  0  0  0  0  0  0  0  0  0  0  0
    0.7155   -0.9474    0.1107 C   0  0  0  0  0  0  0  0  0  0  0  0
    1.4794    0.1699   -0.5204 C   0  0  0  0  0  0  0  0  0  0  0  0
    2.8392    0.1676   -0.2698 O   0  0  0  0  0  0  0  0  0  0  0  0
   -3.7343   -0.5428    1.0059 H   0  0  0  0  0  0  0  0  0  0  0  0
   -0.7501    0.2065   -1.0051 H   0  0  0  0  0  0  0  0  0  0  0  0
    0.5944    1.7087    0.8624 H   0  0  0  0  0  0  0  0  0  0  0  0
    0.7750   -1.9298   -0.1109 H   0  0  0  0  0  0  0  0  0  0  0  0
    1.1798    0.4467   -1.5435 H   0  0  0  0  0  0  0  0  0  0  0  0
    3.2355    1.0752   -0.3010 H   0  0  0  0  0  0  0  0  0  0  0  0
  1  2  2  0
  2  3  1  0
  3  4  1  0
  4  5  1  0
  5  6  1  0
  6  7  1  0
  7  8  1  0
  8  9  1  0
  7  4  1  0
  8  5  1  0
  2 10  1  0
  4 11  1  0
  5 12  1  0
  7 13  1  0
  8 14  1  0
  9 15  1  0
M  END
