
     RDKit          3D

 14 14  0  0  0  0  0  0  0  0999 V2000
    2.8905   -0.4863   -0.6332 O   0  0  0  0  0  0  0  0  0  0  0  0
    2.7494   -0.0044    0.5192 C   0  0  0  0  0  0  0  0  0  0  0  0
    1.4581    0.2747    0.9488 O   0  0  0  0  0  0  0  0  0  0  0  0
    0.3674    0.0060    0.0763 C   0  0  0  0  0  0  0  0  0  0  0  0
   -0.6015   -0.9246    0.6469 C   0  0  0  0  0  0  0  0  0  0  0  0
   -1.8124   -0.4202    0.4811 C   0  0  0  0  0  0  0  0  0  0  0  0
   -1.6617    0.8664   -0.2094 C   0  0  0  0  0  0  0  0  0  0  0  0
   -0.3093    1.1796   -0.1341 O   0  0  0  0  0  0  0  0  0  0  0  0
    3.6208    0.1898    1.1660 H   0  0  0  0  0  0  0  0  0  0  0  0
    0.7281   -0.4163   -0.8872 H   0  0  0  0  0  0  0  0  0  0  0  0
   -0.4196   -1.8717    1.1310 H   0  0  0  0  0  0  0  0  0  0  0  0
   -2.7629   -0.8494    0.7858 H   0  0  0  0  0  0  0  0  0  0  0  0
   -2.2044    1.6374    0.4085 H   0  0  0  0  0  0  0  0  0  0  0  0
   -2.0424    0.8190   -1.2402 H   0  0  0  0  0  0  0  0  0  0  0  0
  1  2  2  0
  2  3  1  0
  3  4  1  0
  4  5  1  0
  5  6  2  0
  6  7  1  0
  7  8  1  0
  8  4  1  0
  2  9  1  0
  4 10  1  0
  5 11  1  0
  6 12  1  0
  7 13  1  0
  7 14  1  0
M  END
