
     RDKit          3D

 17 18  0  0  0  0  0  0  0  0999 V2000
    2.5182    0.8315   -1.3188 O   0  0  0  0  0  0  0  0  0  0  0  0
    2.6932   -0.0587   -0.4489 C   0  0  0  0  0  0  0  0  0  0  0  0
    1.7032   -0.5214    0.3887 O   0  0  0  0  0  0  0  0  0  0  0  0
    0.4191    0.0204    0.2794 C   0  0  0  0  0  0  0  0  0  0  0  0
   -0.3563   -0.0739   -0.9916 C   0  0  0  0  0  0  0  0  0  0  0  0
   -1.5906   -0.5479   -0.2244 C   0  0  0  0  0  0  0  0  0  0  0  0
   -2.5788    0.4290   -0.2429 O   0  0  0  0  0  0  0  0  0  0  0  0
   -0.7375   -0.5345    1.0246 C   0  0  0  0  0  0  0  0  0  0  0  0
   -0.1150    0.7338    1.4672 C   0  0  0  0  0  0  0  0  0  0  0  0
    3.7060   -0.4646   -0.3852 H   0  0  0  0  0  0  0  0  0  0  0  0
   -0.0032   -0.8962   -1.6491 H   0  0  0  0  0  0  0  0  0  0  0  0
   -0.5204    0.8571   -1.5549 H   0  0  0  0  0  0  0  0  0  0  0  0
   -1.9120   -1.5709   -0.4479 H   0  0  0  0  0  0  0  0  0  0  0  0
   -2.5677    0.8364   -1.1428 H   0  0  0  0  0  0  0  0  0  0  0  0
   -0.5635   -1.4494    1.5938 H   0  0  0  0  0  0  0  0  0  0  0  0
    0.4772    0.6907    2.3818 H   0  0  0  0  0  0  0  0  0  0  0  0
   -0.5720    1.7187    1.2709 H   0  0  0  0  0  0  0  0  0  0  0  0
  1  2  2  0
  2  3  1  0
  3  4  1  0
  4  5  1  0
  5  6  1  0
  6  7  1  0
  6  8  1  0
  8  9  1  0
  8  4  1  0
  9  4  1  0
  2 10  1  0
  5 11  1  0
  5 12  1  0
  6 13  1  0
  7 14  1  0
  8 15  1  0
  9 16  1  0
  9 17  1  0
M  END
