
     RDKit          3D

 17 18  0  0  0  0  0  0  0  0999 V2000
    3.0246   -0.3357   -1.1215 O   0  0  0  0  0  0  0  0  0  0  0  0
    2.8394   -0.4284    0.1176 C   0  0  0  0  0  0  0  0  0  0  0  0
    1.5391   -0.2783    0.5689 O   0  0  0  0  0  0  0  0  0  0  0  0
    0.5172   -0.0367   -0.3498 C   0  0  0  0  0  0  0  0  0  0  0  0
   -0.5539   -1.1193   -0.1071 C   0  0  0  0  0  0  0  0  0  0  0  0
   -1.5071   -0.2284    0.6842 C   0  0  0  0  0  0  0  0  0  0  0  0
   -1.7064    0.9114   -0.2743 C   0  0  0  0  0  0  0  0  0  0  0  0
   -0.2939    1.1380    0.1467 C   0  0  0  0  0  0  0  0  0  0  0  0
   -0.6874    0.6343    1.4121 O   0  0  0  0  0  0  0  0  0  0  0  0
    3.6499   -0.6164    0.8100 H   0  0  0  0  0  0  0  0  0  0  0  0
    0.8114    0.0200   -1.3857 H   0  0  0  0  0  0  0  0  0  0  0  0
   -0.9941   -1.3761   -1.0873 H   0  0  0  0  0  0  0  0  0  0  0  0
   -0.1696   -1.9543    0.4657 H   0  0  0  0  0  0  0  0  0  0  0  0
   -2.3423   -0.6792    1.1577 H   0  0  0  0  0  0  0  0  0  0  0  0
   -2.3734    1.6701    0.1362 H   0  0  0  0  0  0  0  0  0  0  0  0
   -1.8876    0.5663   -1.2966 H   0  0  0  0  0  0  0  0  0  0  0  0
    0.1341    2.1127    0.1232 H   0  0  0  0  0  0  0  0  0  0  0  0
  1  2  2  0
  2  3  1  0
  3  4  1  0
  4  5  1  0
  5  6  1  0
  6  7  1  0
  7  8  1  0
  8  9  1  0
  8  4  1  0
  9  6  1  0
  2 10  1  0
  4 11  1  0
  5 12  1  0
  5 13  1  0
  6 14  1  0
  7 15  1  0
  7 16  1  0
  8 17  1  0
M  END
