
     RDKit          3D

 15 15  0  0  0  0  0  0  0  0999 V2000
    2.7622   -0.9701   -1.1702 O   0  0  0  0  0  0  0  0  0  0  0  0
    2.7488   -0.5419    0.0115 C   0  0  0  0  0  0  0  0  0  0  0  0
    1.5492   -0.0575    0.5084 O   0  0  0  0  0  0  0  0  0  0  0  0
    0.3590   -0.0377   -0.2800 C   0  0  0  0  0  0  0  0  0  0  0  0
   -0.4366    1.2585   -0.1318 C   0  0  0  0  0  0  0  0  0  0  0  0
   -0.9636   -0.0792    0.3558 C   0  0  0  0  0  0  0  0  0  0  0  0
   -1.0064   -0.3395    1.7130 O   0  0  0  0  0  0  0  0  0  0  0  0
   -2.0990   -0.6556   -0.4500 C   0  0  0  0  0  0  0  0  0  0  0  0
   -2.1845   -0.5042   -1.6439 O   0  0  0  0  0  0  0  0  0  0  0  0
    3.6810   -0.5845    0.5537 H   0  0  0  0  0  0  0  0  0  0  0  0
    0.4220   -0.4253   -1.3137 H   0  0  0  0  0  0  0  0  0  0  0  0
   -0.8961    1.6851   -1.0509 H   0  0  0  0  0  0  0  0  0  0  0  0
   -0.1037    2.0083    0.5944 H   0  0  0  0  0  0  0  0  0  0  0  0
   -0.9470    0.4774    2.2723 H   0  0  0  0  0  0  0  0  0  0  0  0
   -2.8854   -1.2336    0.0315 H   0  0  0  0  0  0  0  0  0  0  0  0
  1  2  2  0
  2  3  1  0
  3  4  1  0
  4  5  1  0
  5  6  1  0
  6  7  1  0
  6  8  1  0
  8  9  2  0
  6  4  1  0
  2 10  1  0
  4 11  1  0
  5 12  1  0
  5 13  1  0
  7 14  1  0
  8 15  1  0
M  END
