
     RDKit          3D

 17 17  0  0  0  0  0  0  0  0999 V2000
    2.2652    0.3063    1.3292 O   0  0  0  0  0  0  0  0  0  0  0  0
    2.7198    0.0604    0.2122 C   0  0  0  0  0  0  0  0  0  0  0  0
    1.9790   -0.5038   -0.7425 O   0  0  0  0  0  0  0  0  0  0  0  0
    0.6616   -0.9102   -0.7385 C   0  0  0  0  0  0  0  0  0  0  0  0
   -0.3722    0.1099   -0.5309 C   0  0  0  0  0  0  0  0  0  0  0  0
   -0.4778    0.9175    0.7070 C   0  0  0  0  0  0  0  0  0  0  0  0
   -1.9918    0.8334    0.4988 C   0  0  0  0  0  0  0  0  0  0  0  0
   -2.9813    1.4587    0.6742 O   0  0  0  0  0  0  0  0  0  0  0  0
   -1.7013   -0.5205   -0.0884 C   0  0  0  0  0  0  0  0  0  0  0  0
    3.7546    0.3103   -0.0015 H   0  0  0  0  0  0  0  0  0  0  0  0
    0.4797   -1.3206   -1.7906 H   0  0  0  0  0  0  0  0  0  0  0  0
    0.4996   -1.8368   -0.1128 H   0  0  0  0  0  0  0  0  0  0  0  0
   -0.5289    0.7504   -1.4463 H   0  0  0  0  0  0  0  0  0  0  0  0
   -0.1343    1.9580    0.5918 H   0  0  0  0  0  0  0  0  0  0  0  0
   -0.3040    0.4244    1.6857 H   0  0  0  0  0  0  0  0  0  0  0  0
   -1.5681   -1.2499    0.7105 H   0  0  0  0  0  0  0  0  0  0  0  0
   -2.2997   -0.7875   -0.9580 H   0  0  0  0  0  0  0  0  0  0  0  0
  1  2  2  0
  2  3  1  0
  3  4  1  0
  4  5  1  0
  5  6  1  0
  6  7  1  0
  7  8  2  0
  7  9  1  0
  9  5  1  0
  2 10  1  0
  4 11  1  0
  4 12  1  0
  5 13  1  0
  6 14  1  0
  6 15  1  0
  9 16  1  0
  9 17  1  0
M  END
