
     RDKit          3D

 17 17  0  0  0  0  0  0  0  0999 V2000
    3.0866    0.9938   -0.3355 O   0  0  0  0  0  0  0  0  0  0  0  0
    2.5542    0.1529    0.4330 C   0  0  0  0  0  0  0  0  0  0  0  0
    1.2537   -0.1919    0.2170 O   0  0  0  0  0  0  0  0  0  0  0  0
    0.4258    0.3017   -0.7941 C   0  0  0  0  0  0  0  0  0  0  0  0
   -0.1245   -0.8192   -1.4499 O   0  0  0  0  0  0  0  0  0  0  0  0
   -0.8328   -1.4875   -0.4762 C   0  0  0  0  0  0  0  0  0  0  0  0
   -1.2403   -0.4805    0.5704 C   0  0  0  0  0  0  0  0  0  0  0  0
   -0.8394    0.8213   -0.0974 C   0  0  0  0  0  0  0  0  0  0  0  0
   -0.5563    1.8236    0.7978 O   0  0  0  0  0  0  0  0  0  0  0  0
    3.1059   -0.2910    1.2476 H   0  0  0  0  0  0  0  0  0  0  0  0
    0.8611    1.0222   -1.4628 H   0  0  0  0  0  0  0  0  0  0  0  0
   -0.1627   -2.2740   -0.0557 H   0  0  0  0  0  0  0  0  0  0  0  0
   -1.7306   -2.0049   -0.8635 H   0  0  0  0  0  0  0  0  0  0  0  0
   -2.2956   -0.5232    0.8461 H   0  0  0  0  0  0  0  0  0  0  0  0
   -0.5594   -0.5796    1.4636 H   0  0  0  0  0  0  0  0  0  0  0  0
   -1.6164    1.0760   -0.8417 H   0  0  0  0  0  0  0  0  0  0  0  0
   -1.3293    2.4603    0.8009 H   0  0  0  0  0  0  0  0  0  0  0  0
  1  2  2  0
  2  3  1  0
  3  4  1  0
  4  5  1  0
  5  6  1  0
  6  7  1  0
  7  8  1  0
  8  9  1  0
  8  4  1  0
  2 10  1  0
  4 11  1  0
  6 12  1  0
  6 13  1  0
  7 14  1  0
  7 15  1  0
  8 16  1  0
  9 17  1  0
M  END
