
     RDKit          3D

 17 16  0  0  0  0  0  0  0  0999 V2000
    3.7937    0.3999   -0.3759 O   0  0  0  0  0  0  0  0  0  0  0  0
    2.9585    1.0627    0.2630 C   0  0  0  0  0  0  0  0  0  0  0  0
    1.7036    0.5156    0.4345 O   0  0  0  0  0  0  0  0  0  0  0  0
    1.3214   -0.7445   -0.0718 C   0  0  0  0  0  0  0  0  0  0  0  0
   -0.1202   -1.0283    0.3013 C   0  0  0  0  0  0  0  0  0  0  0  0
   -0.9722    0.0173   -0.2772 C   0  0  0  0  0  0  0  0  0  0  0  0
   -0.5125    0.9306   -0.9382 O   0  0  0  0  0  0  0  0  0  0  0  0
   -2.4510   -0.0004   -0.0745 C   0  0  0  0  0  0  0  0  0  0  0  0
   -3.0722    1.0744   -0.7021 O   0  0  0  0  0  0  0  0  0  0  0  0
    3.1321    2.0374    0.6986 H   0  0  0  0  0  0  0  0  0  0  0  0
    1.3863   -0.6961   -1.1855 H   0  0  0  0  0  0  0  0  0  0  0  0
    2.0002   -1.5190    0.3455 H   0  0  0  0  0  0  0  0  0  0  0  0
   -0.1937   -1.0884    1.4116 H   0  0  0  0  0  0  0  0  0  0  0  0
   -0.3666   -2.0426   -0.1121 H   0  0  0  0  0  0  0  0  0  0  0  0
   -2.6705    0.1296    1.0251 H   0  0  0  0  0  0  0  0  0  0  0  0
   -2.9134   -0.9362   -0.4468 H   0  0  0  0  0  0  0  0  0  0  0  0
   -3.0234    1.8880   -0.1307 H   0  0  0  0  0  0  0  0  0  0  0  0
  1  2  2  0
  2  3  1  0
  3  4  1  0
  4  5  1  0
  5  6  1  0
  6  7  2  0
  6  8  1  0
  8  9  1  0
  2 10  1  0
  4 11  1  0
  4 12  1  0
  5 13  1  0
  5 14  1  0
  8 15  1  0
  8 16  1  0
  9 17  1  0
M  END
