
     RDKit          3D

 17 18  0  0  0  0  0  0  0  0999 V2000
    2.9823   -0.4407    1.1058 O   0  0  0  0  0  0  0  0  0  0  0  0
    2.6503   -0.8486   -0.0370 C   0  0  0  0  0  0  0  0  0  0  0  0
    1.3804   -0.5423   -0.5043 O   0  0  0  0  0  0  0  0  0  0  0  0
    0.5004    0.1997    0.2800 C   0  0  0  0  0  0  0  0  0  0  0  0
    0.0827    1.5102   -0.3458 C   0  0  0  0  0  0  0  0  0  0  0  0
   -1.1651    1.2866   -0.9100 O   0  0  0  0  0  0  0  0  0  0  0  0
   -1.8155    0.3592   -0.1138 C   0  0  0  0  0  0  0  0  0  0  0  0
   -1.6331   -1.0590   -0.4977 C   0  0  0  0  0  0  0  0  0  0  0  0
   -0.7977   -0.4862    0.5606 C   0  0  0  0  0  0  0  0  0  0  0  0
    3.3877   -1.4176   -0.5839 H   0  0  0  0  0  0  0  0  0  0  0  0
    0.9873    0.4647    1.2590 H   0  0  0  0  0  0  0  0  0  0  0  0
   -0.0587    2.3167    0.4191 H   0  0  0  0  0  0  0  0  0  0  0  0
    0.7995    1.8764   -1.1041 H   0  0  0  0  0  0  0  0  0  0  0  0
   -2.6524    0.6909    0.5367 H   0  0  0  0  0  0  0  0  0  0  0  0
   -1.2611   -1.2923   -1.5146 H   0  0  0  0  0  0  0  0  0  0  0  0
   -2.4265   -1.7731   -0.1656 H   0  0  0  0  0  0  0  0  0  0  0  0
   -0.9605   -0.8447    1.6156 H   0  0  0  0  0  0  0  0  0  0  0  0
  1  2  2  0
  2  3  1  0
  3  4  1  0
  4  5  1  0
  5  6  1  0
  6  7  1  0
  7  8  1  0
  8  9  1  0
  9  4  1  0
  9  7  1  0
  2 10  1  0
  4 11  1  0
  5 12  1  0
  5 13  1  0
  7 14  1  0
  8 15  1  0
  8 16  1  0
  9 17  1  0
M  END
