
     RDKit          3D

 19 20  0  0  0  0  0  0  0  0999 V2000
    1.9801    0.9688   -1.6391 O   0  0  0  0  0  0  0  0  0  0  0  0
    2.5851    0.4089   -0.6843 C   0  0  0  0  0  0  0  0  0  0  0  0
    1.7555   -0.0519    0.3236 O   0  0  0  0  0  0  0  0  0  0  0  0
    0.3943    0.0403    0.3773 C   0  0  0  0  0  0  0  0  0  0  0  0
   -0.2507    1.3874    0.3577 C   0  0  0  0  0  0  0  0  0  0  0  0
   -1.2439    0.8356   -0.6673 C   0  0  0  0  0  0  0  0  0  0  0  0
   -0.4706   -0.4472   -0.7069 C   0  0  0  0  0  0  0  0  0  0  0  0
   -1.0400   -1.5199    0.1811 C   0  0  0  0  0  0  0  0  0  0  0  0
   -0.2198   -0.9498    1.3226 C   0  0  0  0  0  0  0  0  0  0  0  0
    3.6634    0.3086   -0.6754 H   0  0  0  0  0  0  0  0  0  0  0  0
    0.3423    2.2119   -0.0334 H   0  0  0  0  0  0  0  0  0  0  0  0
   -0.7432    1.6140    1.3282 H   0  0  0  0  0  0  0  0  0  0  0  0
   -1.2652    1.4294   -1.6009 H   0  0  0  0  0  0  0  0  0  0  0  0
   -2.2585    0.6780   -0.2941 H   0  0  0  0  0  0  0  0  0  0  0  0
   -0.0448   -0.7547   -1.6572 H   0  0  0  0  0  0  0  0  0  0  0  0
   -2.1122   -1.3717    0.3870 H   0  0  0  0  0  0  0  0  0  0  0  0
   -0.7620   -2.5476   -0.1305 H   0  0  0  0  0  0  0  0  0  0  0  0
   -0.8196   -0.5100    2.1497 H   0  0  0  0  0  0  0  0  0  0  0  0
    0.5100   -1.7301    1.6620 H   0  0  0  0  0  0  0  0  0  0  0  0
  1  2  2  0
  2  3  1  0
  3  4  1  0
  4  5  1  0
  5  6  1  0
  6  7  1  0
  7  8  1  0
  8  9  1  0
  7  4  1  0
  9  4  1  0
  2 10  1  0
  5 11  1  0
  5 12  1  0
  6 13  1  0
  6 14  1  0
  7 15  1  0
  8 16  1  0
  8 17  1  0
  9 18  1  0
  9 19  1  0
M  END
