
     RDKit          3D

 16 16  0  0  0  0  0  0  0  0999 V2000
    2.9732    0.4842    0.8149 O   0  0  0  0  0  0  0  0  0  0  0  0
    2.5466   -0.5522    0.2151 C   0  0  0  0  0  0  0  0  0  0  0  0
    1.2240   -0.6575   -0.1804 O   0  0  0  0  0  0  0  0  0  0  0  0
    0.3451    0.3959    0.0859 C   0  0  0  0  0  0  0  0  0  0  0  0
   -0.4208    0.7656   -1.1700 C   0  0  0  0  0  0  0  0  0  0  0  0
   -1.4804   -0.2511   -0.7267 C   0  0  0  0  0  0  0  0  0  0  0  0
   -0.9881   -0.0428    0.6811 C   0  0  0  0  0  0  0  0  0  0  0  0
   -0.9404   -1.1513    1.4879 O   0  0  0  0  0  0  0  0  0  0  0  0
    3.2534   -1.3526    0.0228 H   0  0  0  0  0  0  0  0  0  0  0  0
    0.8253    1.2225    0.6009 H   0  0  0  0  0  0  0  0  0  0  0  0
    0.0770    0.5171   -2.1175 H   0  0  0  0  0  0  0  0  0  0  0  0
   -0.7837    1.8145   -1.0893 H   0  0  0  0  0  0  0  0  0  0  0  0
   -2.4796    0.1096   -0.9574 H   0  0  0  0  0  0  0  0  0  0  0  0
   -1.3080   -1.2531   -1.1580 H   0  0  0  0  0  0  0  0  0  0  0  0
   -1.4954    0.8501    1.1279 H   0  0  0  0  0  0  0  0  0  0  0  0
   -1.3480   -0.8989    2.3628 H   0  0  0  0  0  0  0  0  0  0  0  0
  1  2  2  0
  2  3  1  0
  3  4  1  0
  4  5  1  0
  5  6  1  0
  6  7  1  0
  7  8  1  0
  7  4  1  0
  2  9  1  0
  4 10  1  0
  5 11  1  0
  5 12  1  0
  6 13  1  0
  6 14  1  0
  7 15  1  0
  8 16  1  0
M  END
