
     RDKit          3D

 19 19  0  0  0  0  0  0  0  0999 V2000
    2.8515    0.9429   -1.6759 O   0  0  0  0  0  0  0  0  0  0  0  0
    2.9743    0.1240   -0.7395 C   0  0  0  0  0  0  0  0  0  0  0  0
    1.8450   -0.2364   -0.0302 O   0  0  0  0  0  0  0  0  0  0  0  0
    0.5701    0.2967   -0.3396 C   0  0  0  0  0  0  0  0  0  0  0  0
    0.0448    1.0274    0.8635 C   0  0  0  0  0  0  0  0  0  0  0  0
   -1.0484    0.3366    1.5570 C   0  0  0  0  0  0  0  0  0  0  0  0
   -1.9347   -0.4698    0.9552 C   0  0  0  0  0  0  0  0  0  0  0  0
   -1.7503   -0.6391   -0.5140 C   0  0  0  0  0  0  0  0  0  0  0  0
   -0.2994   -0.8498   -0.7745 C   0  0  0  0  0  0  0  0  0  0  0  0
    3.9153   -0.3113   -0.4618 H   0  0  0  0  0  0  0  0  0  0  0  0
    0.6954    0.9985   -1.2000 H   0  0  0  0  0  0  0  0  0  0  0  0
    0.8689    1.1946    1.5874 H   0  0  0  0  0  0  0  0  0  0  0  0
   -0.2664    2.0562    0.5402 H   0  0  0  0  0  0  0  0  0  0  0  0
   -1.1649    0.4728    2.6205 H   0  0  0  0  0  0  0  0  0  0  0  0
   -2.7304   -0.9625    1.5078 H   0  0  0  0  0  0  0  0  0  0  0  0
   -2.1412    0.2895   -0.9912 H   0  0  0  0  0  0  0  0  0  0  0  0
   -2.2991   -1.5366   -0.8165 H   0  0  0  0  0  0  0  0  0  0  0  0
   -0.1536   -0.9802   -1.8666 H   0  0  0  0  0  0  0  0  0  0  0  0
    0.0230   -1.7535   -0.2218 H   0  0  0  0  0  0  0  0  0  0  0  0
  1  2  2  0
  2  3  1  0
  3  4  1  0
  4  5  1  0
  5  6  1  0
  6  7  2  0
  7  8  1  0
  8  9  1  0
  9  4  1  0
  2 10  1  0
  4 11  1  0
  5 12  1  0
  5 13  1  0
  6 14  1  0
  7 15  1  0
  8 16  1  0
  8 17  1  0
  9 18  1  0
  9 19  1  0
M  END
