
     RDKit          3D

 19 18  0  0  0  0  0  0  0  0999 V2000
    2.6857    1.3266   -0.8059 O   0  0  0  0  0  0  0  0  0  0  0  0
    2.7923    0.1724   -1.2613 C   0  0  0  0  0  0  0  0  0  0  0  0
    2.4425   -0.8908   -0.4795 O   0  0  0  0  0  0  0  0  0  0  0  0
    1.9588   -0.7956    0.8308 C   0  0  0  0  0  0  0  0  0  0  0  0
    0.6768    0.0155    0.8171 C   0  0  0  0  0  0  0  0  0  0  0  0
   -0.2938   -0.5848    0.0186 O   0  0  0  0  0  0  0  0  0  0  0  0
   -1.4233    0.2271    0.0696 C   0  0  0  0  0  0  0  0  0  0  0  0
   -2.5560   -0.3223   -0.7641 C   0  0  0  0  0  0  0  0  0  0  0  0
   -3.6269    0.5681   -0.6374 O   0  0  0  0  0  0  0  0  0  0  0  0
    3.1653    0.0402   -2.2810 H   0  0  0  0  0  0  0  0  0  0  0  0
    1.6867   -1.7956    1.2267 H   0  0  0  0  0  0  0  0  0  0  0  0
    2.6708   -0.2959    1.5202 H   0  0  0  0  0  0  0  0  0  0  0  0
    0.2799   -0.0217    1.8609 H   0  0  0  0  0  0  0  0  0  0  0  0
    0.8197    1.0679    0.5733 H   0  0  0  0  0  0  0  0  0  0  0  0
   -1.7281    0.3102    1.1234 H   0  0  0  0  0  0  0  0  0  0  0  0
   -1.1446    1.2049   -0.3749 H   0  0  0  0  0  0  0  0  0  0  0  0
   -2.9102   -1.3111   -0.4059 H   0  0  0  0  0  0  0  0  0  0  0  0
   -2.2583   -0.3985   -1.8214 H   0  0  0  0  0  0  0  0  0  0  0  0
   -3.2373    1.4833   -0.6296 H   0  0  0  0  0  0  0  0  0  0  0  0
  1  2  2  0
  2  3  1  0
  3  4  1  0
  4  5  1  0
  5  6  1  0
  6  7  1  0
  7  8  1  0
  8  9  1  0
  2 10  1  0
  4 11  1  0
  4 12  1  0
  5 13  1  0
  5 14  1  0
  7 15  1  0
  7 16  1  0
  8 17  1  0
  8 18  1  0
  9 19  1  0
M  END
