
     RDKit          3D

 19 20  0  0  0  0  0  0  0  0999 V2000
    2.4267    1.3303   -0.2665 O   0  0  0  0  0  0  0  0  0  0  0  0
    2.6987    0.5490    0.6794 C   0  0  0  0  0  0  0  0  0  0  0  0
    1.9920   -0.6249    0.7771 O   0  0  0  0  0  0  0  0  0  0  0  0
    0.9696   -1.0653   -0.0707 C   0  0  0  0  0  0  0  0  0  0  0  0
   -0.1678   -0.3036   -0.0978 C   0  0  0  0  0  0  0  0  0  0  0  0
   -0.4325    1.1014   -0.4453 C   0  0  0  0  0  0  0  0  0  0  0  0
   -1.8160    0.5450   -0.1546 C   0  0  0  0  0  0  0  0  0  0  0  0
   -1.1632   -0.1277    1.0219 C   0  0  0  0  0  0  0  0  0  0  0  0
   -1.3893   -0.6252   -0.9559 C   0  0  0  0  0  0  0  0  0  0  0  0
    3.4866    0.8148    1.4023 H   0  0  0  0  0  0  0  0  0  0  0  0
    1.3955   -1.2171   -1.1107 H   0  0  0  0  0  0  0  0  0  0  0  0
    0.7580   -2.1274    0.2486 H   0  0  0  0  0  0  0  0  0  0  0  0
   -0.1300    1.9013    0.2694 H   0  0  0  0  0  0  0  0  0  0  0  0
   -0.3299    1.3249   -1.5056 H   0  0  0  0  0  0  0  0  0  0  0  0
   -2.6682    1.0609   -0.1662 H   0  0  0  0  0  0  0  0  0  0  0  0
   -1.6927   -1.0526    1.2818 H   0  0  0  0  0  0  0  0  0  0  0  0
   -0.8564    0.5243    1.8480 H   0  0  0  0  0  0  0  0  0  0  0  0
   -1.8943   -1.5667   -0.7153 H   0  0  0  0  0  0  0  0  0  0  0  0
   -1.1868   -0.4413   -2.0399 H   0  0  0  0  0  0  0  0  0  0  0  0
  1  2  2  0
  2  3  1  0
  3  4  1  0
  4  5  1  0
  5  6  1  0
  6  7  1  0
  7  8  1  0
  7  9  1  0
  8  5  1  0
  9  5  1  0
  2 10  1  0
  4 11  1  0
  4 12  1  0
  6 13  1  0
  6 14  1  0
  7 15  1  0
  8 16  1  0
  8 17  1  0
  9 18  1  0
  9 19  1  0
M  END
