
     RDKit          3D

 15 14  0  0  0  0  0  0  0  0999 V2000
   -2.1507   -0.1544   -1.4019 O   0  0  0  0  0  0  0  0  0  0  0  0
   -2.6325    0.3301   -0.3481 C   0  0  0  0  0  0  0  0  0  0  0  0
   -1.7708    0.8230    0.6019 O   0  0  0  0  0  0  0  0  0  0  0  0
   -0.3885    0.8246    0.4876 C   0  0  0  0  0  0  0  0  0  0  0  0
    0.1493   -0.5766    0.3765 C   0  0  0  0  0  0  0  0  0  0  0  0
    1.6557   -0.5792    0.2535 C   0  0  0  0  0  0  0  0  0  0  0  0
    2.0863    0.1184   -0.8717 O   0  0  0  0  0  0  0  0  0  0  0  0
   -3.7284    0.3479   -0.2117 H   0  0  0  0  0  0  0  0  0  0  0  0
   -0.0065    1.3848   -0.3905 H   0  0  0  0  0  0  0  0  0  0  0  0
    0.0861    1.3189    1.3836 H   0  0  0  0  0  0  0  0  0  0  0  0
   -0.0753   -1.0737    1.3540 H   0  0  0  0  0  0  0  0  0  0  0  0
   -0.3466   -1.1525   -0.3933 H   0  0  0  0  0  0  0  0  0  0  0  0
    2.0683   -0.1599    1.1943 H   0  0  0  0  0  0  0  0  0  0  0  0
    1.9852   -1.6238    0.1942 H   0  0  0  0  0  0  0  0  0  0  0  0
    3.0685    0.1723   -0.8118 H   0  0  0  0  0  0  0  0  0  0  0  0
  1  2  2  0
  2  3  1  0
  3  4  1  0
  4  5  1  0
  5  6  1  0
  6  7  1  0
  2  8  1  0
  4  9  1  0
  4 10  1  0
  5 11  1  0
  5 12  1  0
  6 13  1  0
  6 14  1  0
  7 15  1  0
M  END
