
     RDKit          3D

 19 20  0  0  0  0  0  0  0  0999 V2000
    1.7000   -0.7589    2.8914 O   0  0  0  0  0  0  0  0  0  0  0  0
    2.5790   -0.6571    2.0077 C   0  0  0  0  0  0  0  0  0  0  0  0
    2.1913   -0.1065    0.8066 O   0  0  0  0  0  0  0  0  0  0  0  0
    0.8936    0.3127    0.5897 C   0  0  0  0  0  0  0  0  0  0  0  0
    0.7498    1.7023   -0.0611 C   0  0  0  0  0  0  0  0  0  0  0  0
    0.2512    0.4185   -0.7261 C   0  0  0  0  0  0  0  0  0  0  0  0
   -1.2551    0.2630   -0.7939 C   0  0  0  0  0  0  0  0  0  0  0  0
   -1.7971   -1.0454   -0.3083 C   0  0  0  0  0  0  0  0  0  0  0  0
   -1.8573   -0.6783   -1.7738 C   0  0  0  0  0  0  0  0  0  0  0  0
    3.5869   -0.9844    2.1808 H   0  0  0  0  0  0  0  0  0  0  0  0
    0.2048    0.1695    1.4516 H   0  0  0  0  0  0  0  0  0  0  0  0
    1.6668    2.1545   -0.4359 H   0  0  0  0  0  0  0  0  0  0  0  0
   -0.0136    2.3902    0.3601 H   0  0  0  0  0  0  0  0  0  0  0  0
    0.7500    0.1207   -1.6666 H   0  0  0  0  0  0  0  0  0  0  0  0
   -1.8251    1.1689   -0.5322 H   0  0  0  0  0  0  0  0  0  0  0  0
   -2.6981   -0.9999    0.3104 H   0  0  0  0  0  0  0  0  0  0  0  0
   -1.0447   -1.8598   -0.1079 H   0  0  0  0  0  0  0  0  0  0  0  0
   -2.8470   -0.3841   -2.1788 H   0  0  0  0  0  0  0  0  0  0  0  0
   -1.2354   -1.2261   -2.5049 H   0  0  0  0  0  0  0  0  0  0  0  0
  1  2  2  0
  2  3  1  0
  3  4  1  0
  4  5  1  0
  5  6  1  0
  6  7  1  0
  7  8  1  0
  8  9  1  0
  6  4  1  0
  9  7  1  0
  2 10  1  0
  4 11  1  0
  5 12  1  0
  5 13  1  0
  6 14  1  0
  7 15  1  0
  8 16  1  0
  8 17  1  0
  9 18  1  0
  9 19  1  0
M  END
