
     RDKit          3D

 17 18  0  0  0  0  0  0  0  0999 V2000
    3.3695   -0.6086    0.5808 O   0  0  0  0  0  0  0  0  0  0  0  0
    2.9650   -0.4735   -0.6131 C   0  0  0  0  0  0  0  0  0  0  0  0
    1.6413   -0.1521   -0.8603 O   0  0  0  0  0  0  0  0  0  0  0  0
    0.7550    0.0226    0.1992 C   0  0  0  0  0  0  0  0  0  0  0  0
    0.0078    1.3423    0.2134 C   0  0  0  0  0  0  0  0  0  0  0  0
   -1.2596    0.5665    0.4508 C   0  0  0  0  0  0  0  0  0  0  0  0
   -1.6816   -0.3188   -0.6584 C   0  0  0  0  0  0  0  0  0  0  0  0
   -2.8698   -0.9960   -0.4723 O   0  0  0  0  0  0  0  0  0  0  0  0
   -0.5294   -0.7649    0.1203 C   0  0  0  0  0  0  0  0  0  0  0  0
    3.6612   -0.6104   -1.4535 H   0  0  0  0  0  0  0  0  0  0  0  0
    1.2337   -0.1233    1.1875 H   0  0  0  0  0  0  0  0  0  0  0  0
    0.2598    2.0085    1.0363 H   0  0  0  0  0  0  0  0  0  0  0  0
   -0.0329    1.8193   -0.8014 H   0  0  0  0  0  0  0  0  0  0  0  0
   -1.7806    0.6115    1.4100 H   0  0  0  0  0  0  0  0  0  0  0  0
   -1.5700    0.1302   -1.6822 H   0  0  0  0  0  0  0  0  0  0  0  0
   -3.5176   -0.8616   -1.1957 H   0  0  0  0  0  0  0  0  0  0  0  0
   -0.6518   -1.5919    0.8382 H   0  0  0  0  0  0  0  0  0  0  0  0
  1  2  2  0
  2  3  1  0
  3  4  1  0
  4  5  1  0
  5  6  1  0
  6  7  1  0
  7  8  1  0
  7  9  1  0
  9  4  1  0
  9  6  1  0
  2 10  1  0
  4 11  1  0
  5 12  1  0
  5 13  1  0
  6 14  1  0
  7 15  1  0
  8 16  1  0
  9 17  1  0
M  END
