
     RDKit          3D

 15 16  0  0  0  0  0  0  0  0999 V2000
    2.3126    0.6695    1.1544 O   0  0  0  0  0  0  0  0  0  0  0  0
    2.4712   -0.0557    0.1329 C   0  0  0  0  0  0  0  0  0  0  0  0
    1.3611   -0.4289   -0.6264 O   0  0  0  0  0  0  0  0  0  0  0  0
    0.1107    0.0162   -0.2257 C   0  0  0  0  0  0  0  0  0  0  0  0
   -0.4566   -0.3318    1.1208 C   0  0  0  0  0  0  0  0  0  0  0  0
   -1.7161   -0.7444    0.4259 C   0  0  0  0  0  0  0  0  0  0  0  0
   -2.7873   -1.2319    0.7344 O   0  0  0  0  0  0  0  0  0  0  0  0
   -1.1473   -0.3122   -0.8792 C   0  0  0  0  0  0  0  0  0  0  0  0
   -0.5904    1.0856   -0.9861 C   0  0  0  0  0  0  0  0  0  0  0  0
    3.4775   -0.3481   -0.0941 H   0  0  0  0  0  0  0  0  0  0  0  0
   -0.5888    0.5760    1.7433 H   0  0  0  0  0  0  0  0  0  0  0  0
    0.0399   -1.1811    1.6205 H   0  0  0  0  0  0  0  0  0  0  0  0
   -1.2660   -0.9443   -1.7596 H   0  0  0  0  0  0  0  0  0  0  0  0
   -1.0154    1.9005   -0.3666 H   0  0  0  0  0  0  0  0  0  0  0  0
   -0.2052    1.3306   -1.9945 H   0  0  0  0  0  0  0  0  0  0  0  0
  1  2  2  0
  2  3  1  0
  3  4  1  0
  4  5  1  0
  5  6  1  0
  6  7  2  0
  6  8  1  0
  8  9  1  0
  8  4  1  0
  9  4  1  0
  2 10  1  0
  5 11  1  0
  5 12  1  0
  8 13  1  0
  9 14  1  0
  9 15  1  0
M  END
