
     RDKit          3D

 13 14  0  0  0  0  0  0  0  0999 V2000
    1.9034   -0.1361   -2.2282 O   0  0  0  0  0  0  0  0  0  0  0  0
    2.3144    0.0638   -1.0798 C   0  0  0  0  0  0  0  0  0  0  0  0
    1.3905    0.1608   -0.0676 O   0  0  0  0  0  0  0  0  0  0  0  0
   -0.0007    0.0511   -0.2252 C   0  0  0  0  0  0  0  0  0  0  0  0
   -0.8281    1.0849    0.3907 C   0  0  0  0  0  0  0  0  0  0  0  0
   -0.9332    2.2901    0.2942 O   0  0  0  0  0  0  0  0  0  0  0  0
   -1.5455    0.0908    1.2325 C   0  0  0  0  0  0  0  0  0  0  0  0
   -0.8439   -0.8418    1.9568 O   0  0  0  0  0  0  0  0  0  0  0  0
   -0.6833   -1.0073    0.5922 C   0  0  0  0  0  0  0  0  0  0  0  0
    3.3699    0.1704   -0.8068 H   0  0  0  0  0  0  0  0  0  0  0  0
   -0.2158   -0.1265   -1.3058 H   0  0  0  0  0  0  0  0  0  0  0  0
   -2.6444    0.0001    1.1458 H   0  0  0  0  0  0  0  0  0  0  0  0
   -1.2831   -1.8002    0.1011 H   0  0  0  0  0  0  0  0  0  0  0  0
  1  2  2  0
  2  3  1  0
  3  4  1  0
  4  5  1  0
  5  6  2  0
  5  7  1  0
  7  8  1  0
  8  9  1  0
  9  4  1  0
  9  7  1  0
  2 10  1  0
  4 11  1  0
  7 12  1  0
  9 13  1  0
M  END
