
     RDKit          3D

 15 16  0  0  0  0  0  0  0  0999 V2000
    3.0646   -0.6022    0.7538 O   0  0  0  0  0  0  0  0  0  0  0  0
    2.7713    0.0334   -0.2923 C   0  0  0  0  0  0  0  0  0  0  0  0
    1.4418    0.2044   -0.5752 O   0  0  0  0  0  0  0  0  0  0  0  0
    0.4163   -0.3113    0.2720 C   0  0  0  0  0  0  0  0  0  0  0  0
   -0.5044   -1.1328   -0.5620 C   0  0  0  0  0  0  0  0  0  0  0  0
   -0.5860   -2.2515   -1.0154 O   0  0  0  0  0  0  0  0  0  0  0  0
   -1.3874    0.0712   -0.6392 C   0  0  0  0  0  0  0  0  0  0  0  0
   -2.0658    0.4116    0.6250 C   0  0  0  0  0  0  0  0  0  0  0  0
   -0.6351    0.7013    0.5525 C   0  0  0  0  0  0  0  0  0  0  0  0
    3.5806    0.4216   -0.9301 H   0  0  0  0  0  0  0  0  0  0  0  0
    0.8650   -0.8321    1.1296 H   0  0  0  0  0  0  0  0  0  0  0  0
   -1.4031    0.6909   -1.5324 H   0  0  0  0  0  0  0  0  0  0  0  0
   -2.4953   -0.4395    1.1858 H   0  0  0  0  0  0  0  0  0  0  0  0
   -2.7504    1.2830    0.5822 H   0  0  0  0  0  0  0  0  0  0  0  0
   -0.3122    1.7519    0.4459 H   0  0  0  0  0  0  0  0  0  0  0  0
  1  2  2  0
  2  3  1  0
  3  4  1  0
  4  5  1  0
  5  6  2  0
  5  7  1  0
  7  8  1  0
  8  9  1  0
  9  4  1  0
  9  7  1  0
  2 10  1  0
  4 11  1  0
  7 12  1  0
  8 13  1  0
  8 14  1  0
  9 15  1  0
M  END
