
     RDKit          3D

 17 18  0  0  0  0  0  0  0  0999 V2000
    3.2335   -0.1926    1.2608 O   0  0  0  0  0  0  0  0  0  0  0  0
    3.0818    0.4128    0.1715 C   0  0  0  0  0  0  0  0  0  0  0  0
    1.8005    0.4984   -0.3339 O   0  0  0  0  0  0  0  0  0  0  0  0
    0.6613   -0.0296    0.2617 C   0  0  0  0  0  0  0  0  0  0  0  0
   -0.5553    0.8606    0.3130 C   0  0  0  0  0  0  0  0  0  0  0  0
   -1.2991   -0.1656   -0.4704 C   0  0  0  0  0  0  0  0  0  0  0  0
   -2.3882   -0.0181   -1.2971 C   0  0  0  0  0  0  0  0  0  0  0  0
   -2.4597   -0.7346   -0.0235 O   0  0  0  0  0  0  0  0  0  0  0  0
   -0.0557   -0.9740   -0.6908 C   0  0  0  0  0  0  0  0  0  0  0  0
    3.9533    0.8293   -0.3059 H   0  0  0  0  0  0  0  0  0  0  0  0
    0.8822   -0.5507    1.2246 H   0  0  0  0  0  0  0  0  0  0  0  0
   -0.9077    1.0044    1.3717 H   0  0  0  0  0  0  0  0  0  0  0  0
   -0.4797    1.8192   -0.2256 H   0  0  0  0  0  0  0  0  0  0  0  0
   -3.0111    0.8950   -1.3433 H   0  0  0  0  0  0  0  0  0  0  0  0
   -2.5770   -0.7018   -2.1626 H   0  0  0  0  0  0  0  0  0  0  0  0
    0.3165   -0.9513   -1.7319 H   0  0  0  0  0  0  0  0  0  0  0  0
   -0.1957   -2.0013   -0.2707 H   0  0  0  0  0  0  0  0  0  0  0  0
  1  2  2  0
  2  3  1  0
  3  4  1  0
  4  5  1  0
  5  6  1  0
  6  7  1  0
  7  8  1  0
  6  9  1  0
  9  4  1  0
  8  6  1  0
  2 10  1  0
  4 11  1  0
  5 12  1  0
  5 13  1  0
  7 14  1  0
  7 15  1  0
  9 16  1  0
  9 17  1  0
M  END
