
     RDKit          3D

 19 19  0  0  0  0  0  0  0  0999 V2000
    3.4006    0.9477    0.8842 O   0  0  0  0  0  0  0  0  0  0  0  0
    3.1266    0.1450   -0.0548 C   0  0  0  0  0  0  0  0  0  0  0  0
    1.7675   -0.1391   -0.2232 O   0  0  0  0  0  0  0  0  0  0  0  0
    0.7649    0.4274    0.5950 C   0  0  0  0  0  0  0  0  0  0  0  0
   -0.5632   -0.1216    0.1007 C   0  0  0  0  0  0  0  0  0  0  0  0
   -0.8477    0.2255   -1.3464 C   0  0  0  0  0  0  0  0  0  0  0  0
   -0.8913    1.5948   -1.5394 O   0  0  0  0  0  0  0  0  0  0  0  0
   -1.0116   -1.4813    0.5220 C   0  0  0  0  0  0  0  0  0  0  0  0
   -1.6525   -0.2645    1.0780 C   0  0  0  0  0  0  0  0  0  0  0  0
    3.8733   -0.3023   -0.6951 H   0  0  0  0  0  0  0  0  0  0  0  0
    0.8972    0.1236    1.6734 H   0  0  0  0  0  0  0  0  0  0  0  0
    0.7048    1.5206    0.5281 H   0  0  0  0  0  0  0  0  0  0  0  0
   -1.7609   -0.2779   -1.7285 H   0  0  0  0  0  0  0  0  0  0  0  0
    0.0278   -0.1822   -1.9289 H   0  0  0  0  0  0  0  0  0  0  0  0
   -1.8405    1.8458   -1.6412 H   0  0  0  0  0  0  0  0  0  0  0  0
   -1.6094   -2.0981   -0.1914 H   0  0  0  0  0  0  0  0  0  0  0  0
   -0.2852   -2.0657    1.1056 H   0  0  0  0  0  0  0  0  0  0  0  0
   -1.4312    0.0830    2.1192 H   0  0  0  0  0  0  0  0  0  0  0  0
   -2.6691    0.0196    0.7428 H   0  0  0  0  0  0  0  0  0  0  0  0
  1  2  2  0
  2  3  1  0
  3  4  1  0
  4  5  1  0
  5  6  1  0
  6  7  1  0
  5  8  1  0
  8  9  1  0
  9  5  1  0
  2 10  1  0
  4 11  1  0
  4 12  1  0
  6 13  1  0
  6 14  1  0
  7 15  1  0
  8 16  1  0
  8 17  1  0
  9 18  1  0
  9 19  1  0
M  END
