
     RDKit          3D

 18 17  0  0  0  0  0  0  0  0999 V2000
    3.8021    0.6163    0.5914 O   0  0  0  0  0  0  0  0  0  0  0  0
    3.2871   -0.4708    0.2224 C   0  0  0  0  0  0  0  0  0  0  0  0
    1.9316   -0.4472   -0.0730 O   0  0  0  0  0  0  0  0  0  0  0  0
    1.1595    0.7320    0.0318 C   0  0  0  0  0  0  0  0  0  0  0  0
   -0.2631    0.4956   -0.3394 C   0  0  0  0  0  0  0  0  0  0  0  0
   -0.9334   -0.5369    0.5385 C   0  0  0  0  0  0  0  0  0  0  0  0
   -2.3731   -0.6576    0.0272 C   0  0  0  0  0  0  0  0  0  0  0  0
   -3.0290    0.5627    0.1187 O   0  0  0  0  0  0  0  0  0  0  0  0
    3.8912   -1.3737    0.1449 H   0  0  0  0  0  0  0  0  0  0  0  0
    1.1982    1.1284    1.0776 H   0  0  0  0  0  0  0  0  0  0  0  0
    1.5732    1.4907   -0.6639 H   0  0  0  0  0  0  0  0  0  0  0  0
   -0.3104    0.0916   -1.3868 H   0  0  0  0  0  0  0  0  0  0  0  0
   -0.8201    1.4529   -0.2655 H   0  0  0  0  0  0  0  0  0  0  0  0
   -0.9049   -0.3024    1.6033 H   0  0  0  0  0  0  0  0  0  0  0  0
   -0.3845   -1.4844    0.3896 H   0  0  0  0  0  0  0  0  0  0  0  0
   -2.3776   -0.9848   -1.0317 H   0  0  0  0  0  0  0  0  0  0  0  0
   -2.8875   -1.4624    0.6031 H   0  0  0  0  0  0  0  0  0  0  0  0
   -2.5595    1.1499    0.7744 H   0  0  0  0  0  0  0  0  0  0  0  0
  1  2  2  0
  2  3  1  0
  3  4  1  0
  4  5  1  0
  5  6  1  0
  6  7  1  0
  7  8  1  0
  2  9  1  0
  4 10  1  0
  4 11  1  0
  5 12  1  0
  5 13  1  0
  6 14  1  0
  6 15  1  0
  7 16  1  0
  7 17  1  0
  8 18  1  0
M  END
