
     RDKit          3D

 14 13  0  0  0  0  0  0  0  0999 V2000
    3.0358   -0.3430    0.6856 O   0  0  0  0  0  0  0  0  0  0  0  0
    2.2876    0.6631    0.5876 C   0  0  0  0  0  0  0  0  0  0  0  0
    0.9858    0.4850    0.2232 O   0  0  0  0  0  0  0  0  0  0  0  0
    0.3797   -0.7528   -0.0627 C   0  0  0  0  0  0  0  0  0  0  0  0
   -1.0787   -0.4316   -0.4186 C   0  0  0  0  0  0  0  0  0  0  0  0
   -1.1349    0.4136   -1.5222 O   0  0  0  0  0  0  0  0  0  0  0  0
   -1.7733    0.1580    0.7465 C   0  0  0  0  0  0  0  0  0  0  0  0
   -2.2984    1.2452    0.6641 O   0  0  0  0  0  0  0  0  0  0  0  0
    2.6360    1.6683    0.7815 H   0  0  0  0  0  0  0  0  0  0  0  0
    0.3811   -1.3932    0.8414 H   0  0  0  0  0  0  0  0  0  0  0  0
    0.8243   -1.2711   -0.9357 H   0  0  0  0  0  0  0  0  0  0  0  0
   -1.5971   -1.3772   -0.6674 H   0  0  0  0  0  0  0  0  0  0  0  0
   -0.8373    1.3220   -1.3028 H   0  0  0  0  0  0  0  0  0  0  0  0
   -1.8105   -0.3863    1.6736 H   0  0  0  0  0  0  0  0  0  0  0  0
  1  2  2  0
  2  3  1  0
  3  4  1  0
  4  5  1  0
  5  6  1  0
  5  7  1  0
  7  8  2  0
  2  9  1  0
  4 10  1  0
  4 11  1  0
  5 12  1  0
  6 13  1  0
  7 14  1  0
M  END
