
     RDKit          3D

 17 17  0  0  0  0  0  0  0  0999 V2000
    2.9728   -0.1017   -1.6185 O   0  0  0  0  0  0  0  0  0  0  0  0
    2.9590   -0.6193   -0.4629 C   0  0  0  0  0  0  0  0  0  0  0  0
    1.8128   -0.6169    0.3199 O   0  0  0  0  0  0  0  0  0  0  0  0
    0.6626   -0.0211   -0.2083 C   0  0  0  0  0  0  0  0  0  0  0  0
    0.2090    1.0272    0.7779 C   0  0  0  0  0  0  0  0  0  0  0  0
   -1.1090    1.0871    0.8185 C   0  0  0  0  0  0  0  0  0  0  0  0
   -1.6375    0.0903   -0.1329 C   0  0  0  0  0  0  0  0  0  0  0  0
   -2.8537   -0.4436    0.2661 O   0  0  0  0  0  0  0  0  0  0  0  0
   -0.5442   -0.9499   -0.1860 C   0  0  0  0  0  0  0  0  0  0  0  0
    3.9032   -1.0671   -0.1207 H   0  0  0  0  0  0  0  0  0  0  0  0
    0.8191    0.3809   -1.2058 H   0  0  0  0  0  0  0  0  0  0  0  0
    0.8798    1.6446    1.3701 H   0  0  0  0  0  0  0  0  0  0  0  0
   -1.6931    1.7737    1.4623 H   0  0  0  0  0  0  0  0  0  0  0  0
   -1.6900    0.5839   -1.1235 H   0  0  0  0  0  0  0  0  0  0  0  0
   -3.4562    0.3091    0.4461 H   0  0  0  0  0  0  0  0  0  0  0  0
   -0.5939   -1.5537    0.7232 H   0  0  0  0  0  0  0  0  0  0  0  0
   -0.6407   -1.5234   -1.1252 H   0  0  0  0  0  0  0  0  0  0  0  0
  1  2  2  0
  2  3  1  0
  3  4  1  0
  4  5  1  0
  5  6  2  0
  6  7  1  0
  7  8  1  0
  7  9  1  0
  9  4  1  0
  2 10  1  0
  4 11  1  0
  5 12  1  0
  6 13  1  0
  7 14  1  0
  8 15  1  0
  9 16  1  0
  9 17  1  0
M  END
