
     RDKit          3D

 17 16  0  0  0  0  0  0  0  0999 V2000
   -3.5485   -1.4253    0.8838 O   0  0  0  0  0  0  0  0  0  0  0  0
   -3.6058   -0.2165    0.4717 C   0  0  0  0  0  0  0  0  0  0  0  0
   -2.3981    0.3576    0.1265 O   0  0  0  0  0  0  0  0  0  0  0  0
   -1.1578   -0.3237    0.2126 C   0  0  0  0  0  0  0  0  0  0  0  0
   -0.0979    0.6726   -0.2610 C   0  0  0  0  0  0  0  0  0  0  0  0
    1.2353   -0.0489   -0.1722 C   0  0  0  0  0  0  0  0  0  0  0  0
    2.2741    0.7979   -0.5914 O   0  0  0  0  0  0  0  0  0  0  0  0
    3.5803    0.3427   -0.5919 C   0  0  0  0  0  0  0  0  0  0  0  0
    3.7843   -0.8361   -0.2081 O   0  0  0  0  0  0  0  0  0  0  0  0
   -4.5575    0.3026    0.4069 H   0  0  0  0  0  0  0  0  0  0  0  0
   -1.1900   -1.2157   -0.4123 H   0  0  0  0  0  0  0  0  0  0  0  0
   -0.8814   -0.6041    1.2334 H   0  0  0  0  0  0  0  0  0  0  0  0
   -0.0753    1.5664    0.3773 H   0  0  0  0  0  0  0  0  0  0  0  0
   -0.2503    0.9399   -1.3344 H   0  0  0  0  0  0  0  0  0  0  0  0
    1.1693   -0.9625   -0.8191 H   0  0  0  0  0  0  0  0  0  0  0  0
    1.3490   -0.3613    0.8955 H   0  0  0  0  0  0  0  0  0  0  0  0
    4.3703    1.0146   -0.9204 H   0  0  0  0  0  0  0  0  0  0  0  0
  1  2  2  0
  2  3  1  0
  3  4  1  0
  4  5  1  0
  5  6  1  0
  6  7  1  0
  7  8  1  0
  8  9  2  0
  2 10  1  0
  4 11  1  0
  4 12  1  0
  5 13  1  0
  5 14  1  0
  6 15  1  0
  6 16  1  0
  8 17  1  0
M  END
