
     RDKit          3D

 17 17  0  0  0  0  0  0  0  0999 V2000
    2.8074   -0.7206   -1.1771 O   0  0  0  0  0  0  0  0  0  0  0  0
    2.7073   -0.3697    0.0027 C   0  0  0  0  0  0  0  0  0  0  0  0
    1.4556    0.0057    0.4700 O   0  0  0  0  0  0  0  0  0  0  0  0
    0.3357   -0.0156   -0.3835 C   0  0  0  0  0  0  0  0  0  0  0  0
   -0.2617    1.3976   -0.3374 C   0  0  0  0  0  0  0  0  0  0  0  0
   -0.7613    1.3969    0.9860 O   0  0  0  0  0  0  0  0  0  0  0  0
   -1.6026    0.2762    0.9373 C   0  0  0  0  0  0  0  0  0  0  0  0
   -0.7499   -0.7997    0.3088 C   0  0  0  0  0  0  0  0  0  0  0  0
   -1.5276   -1.5384   -0.5400 O   0  0  0  0  0  0  0  0  0  0  0  0
    3.5232   -0.3274    0.7198 H   0  0  0  0  0  0  0  0  0  0  0  0
    0.5476   -0.3428   -1.4013 H   0  0  0  0  0  0  0  0  0  0  0  0
    0.4993    2.1686   -0.4225 H   0  0  0  0  0  0  0  0  0  0  0  0
   -1.1132    1.5003   -1.0266 H   0  0  0  0  0  0  0  0  0  0  0  0
   -1.9385   -0.0228    1.9535 H   0  0  0  0  0  0  0  0  0  0  0  0
   -2.4377    0.5351    0.2684 H   0  0  0  0  0  0  0  0  0  0  0  0
   -0.3311   -1.4561    1.0777 H   0  0  0  0  0  0  0  0  0  0  0  0
   -1.1527   -1.6875   -1.4357 H   0  0  0  0  0  0  0  0  0  0  0  0
  1  2  2  0
  2  3  1  0
  3  4  1  0
  4  5  1  0
  5  6  1  0
  6  7  1  0
  7  8  1  0
  8  9  1  0
  8  4  1  0
  2 10  1  0
  4 11  1  0
  5 12  1  0
  5 13  1  0
  7 14  1  0
  7 15  1  0
  8 16  1  0
  9 17  1  0
M  END
