
     RDKit          3D

 19 19  0  0  0  0  0  0  0  0999 V2000
    3.1432    0.4414    1.0781 O   0  0  0  0  0  0  0  0  0  0  0  0
    2.9892   -0.1555   -0.0200 C   0  0  0  0  0  0  0  0  0  0  0  0
    1.6765   -0.3925   -0.4065 O   0  0  0  0  0  0  0  0  0  0  0  0
    0.5797    0.0218    0.4032 C   0  0  0  0  0  0  0  0  0  0  0  0
   -0.1310    1.0902   -0.3698 C   0  0  0  0  0  0  0  0  0  0  0  0
   -1.2617    0.4830   -1.1765 C   0  0  0  0  0  0  0  0  0  0  0  0
   -2.1301   -0.1629   -0.0870 C   0  0  0  0  0  0  0  0  0  0  0  0
   -1.4698   -1.2824    0.3142 O   0  0  0  0  0  0  0  0  0  0  0  0
   -0.2351   -1.1180    0.8473 C   0  0  0  0  0  0  0  0  0  0  0  0
    3.8477   -0.4470   -0.5931 H   0  0  0  0  0  0  0  0  0  0  0  0
    1.0077    0.5267    1.3203 H   0  0  0  0  0  0  0  0  0  0  0  0
   -0.5932    1.8135    0.3331 H   0  0  0  0  0  0  0  0  0  0  0  0
    0.5531    1.6407   -1.0481 H   0  0  0  0  0  0  0  0  0  0  0  0
   -0.8170   -0.3281   -1.7989 H   0  0  0  0  0  0  0  0  0  0  0  0
   -1.8146    1.2107   -1.7614 H   0  0  0  0  0  0  0  0  0  0  0  0
   -3.1285   -0.3976   -0.4372 H   0  0  0  0  0  0  0  0  0  0  0  0
   -2.2139    0.5254    0.8010 H   0  0  0  0  0  0  0  0  0  0  0  0
    0.3462   -2.0650    0.6286 H   0  0  0  0  0  0  0  0  0  0  0  0
   -0.3482   -1.1521    1.9727 H   0  0  0  0  0  0  0  0  0  0  0  0
  1  2  2  0
  2  3  1  0
  3  4  1  0
  4  5  1  0
  5  6  1  0
  6  7  1  0
  7  8  1  0
  8  9  1  0
  9  4  1  0
  2 10  1  0
  4 11  1  0
  5 12  1  0
  5 13  1  0
  6 14  1  0
  6 15  1  0
  7 16  1  0
  7 17  1  0
  9 18  1  0
  9 19  1  0
M  END
