
     RDKit          3D

 17 18  0  0  0  0  0  0  0  0999 V2000
    3.6530   -0.2905   -0.3309 O   0  0  0  0  0  0  0  0  0  0  0  0
    3.0689    0.6819    0.1692 C   0  0  0  0  0  0  0  0  0  0  0  0
    1.7116    0.6470    0.3356 O   0  0  0  0  0  0  0  0  0  0  0  0
    0.9045   -0.4822   -0.0466 C   0  0  0  0  0  0  0  0  0  0  0  0
   -0.4314   -0.2397    0.2375 C   0  0  0  0  0  0  0  0  0  0  0  0
   -1.2127    0.9563   -0.2241 C   0  0  0  0  0  0  0  0  0  0  0  0
   -2.0741    0.1748    0.7090 C   0  0  0  0  0  0  0  0  0  0  0  0
   -1.6143   -1.0649   -0.0129 C   0  0  0  0  0  0  0  0  0  0  0  0
   -0.9455    0.0225    1.5031 O   0  0  0  0  0  0  0  0  0  0  0  0
    3.5973    1.5820    0.4892 H   0  0  0  0  0  0  0  0  0  0  0  0
    1.0856   -0.7439   -1.1004 H   0  0  0  0  0  0  0  0  0  0  0  0
    1.3204   -1.3252    0.5523 H   0  0  0  0  0  0  0  0  0  0  0  0
   -0.8573    1.9366    0.1116 H   0  0  0  0  0  0  0  0  0  0  0  0
   -1.5234    0.8752   -1.2838 H   0  0  0  0  0  0  0  0  0  0  0  0
   -3.0105    0.3788    1.0143 H   0  0  0  0  0  0  0  0  0  0  0  0
   -1.9326   -1.0909   -1.0723 H   0  0  0  0  0  0  0  0  0  0  0  0
   -1.7396   -2.0179    0.5123 H   0  0  0  0  0  0  0  0  0  0  0  0
  1  2  2  0
  2  3  1  0
  3  4  1  0
  4  5  1  0
  5  6  1  0
  6  7  1  0
  7  8  1  0
  7  9  1  0
  8  5  1  0
  9  5  1  0
  2 10  1  0
  4 11  1  0
  4 12  1  0
  6 13  1  0
  6 14  1  0
  7 15  1  0
  8 16  1  0
  8 17  1  0
M  END
