
     RDKit          3D

 13 14  0  0  0  0  0  0  0  0999 V2000
    2.7738   -0.4624   -1.0051 O   0  0  0  0  0  0  0  0  0  0  0  0
    2.4182    0.5352   -0.3279 C   0  0  0  0  0  0  0  0  0  0  0  0
    1.0973    0.6197    0.0592 O   0  0  0  0  0  0  0  0  0  0  0  0
    0.2033   -0.4027   -0.3135 C   0  0  0  0  0  0  0  0  0  0  0  0
   -0.7214   -0.7972    0.8134 C   0  0  0  0  0  0  0  0  0  0  0  0
   -1.3241    0.2456    1.5496 O   0  0  0  0  0  0  0  0  0  0  0  0
   -1.8078    0.9052    0.4337 C   0  0  0  0  0  0  0  0  0  0  0  0
   -2.4535    1.9561    0.2326 O   0  0  0  0  0  0  0  0  0  0  0  0
   -1.2484   -0.1401   -0.4110 C   0  0  0  0  0  0  0  0  0  0  0  0
    3.1557    1.3113   -0.0601 H   0  0  0  0  0  0  0  0  0  0  0  0
    0.6564   -1.2096   -0.9035 H   0  0  0  0  0  0  0  0  0  0  0  0
   -0.8810   -1.8444    1.0508 H   0  0  0  0  0  0  0  0  0  0  0  0
   -1.8684   -0.7166   -1.1182 H   0  0  0  0  0  0  0  0  0  0  0  0
  1  2  2  0
  2  3  1  0
  3  4  1  0
  4  5  1  0
  5  6  1  0
  6  7  1  0
  7  8  2  0
  7  9  1  0
  9  4  1  0
  9  5  1  0
  2 10  1  0
  4 11  1  0
  5 12  1  0
  9 13  1  0
M  END
