
     RDKit          3D

 15 15  0  0  0  0  0  0  0  0999 V2000
    2.5198   -0.5536   -1.3316 O   0  0  0  0  0  0  0  0  0  0  0  0
    2.4519   -0.7365   -0.1012 C   0  0  0  0  0  0  0  0  0  0  0  0
    1.3191   -0.2628    0.5287 O   0  0  0  0  0  0  0  0  0  0  0  0
    0.2588    0.3852   -0.0362 C   0  0  0  0  0  0  0  0  0  0  0  0
   -0.3759    1.5533    0.6176 C   0  0  0  0  0  0  0  0  0  0  0  0
   -1.5838    1.1193    0.0108 O   0  0  0  0  0  0  0  0  0  0  0  0
   -1.1315   -0.1718    0.2999 C   0  0  0  0  0  0  0  0  0  0  0  0
   -1.5855   -1.2117   -0.6501 C   0  0  0  0  0  0  0  0  0  0  0  0
   -2.2894   -0.8794   -1.5734 O   0  0  0  0  0  0  0  0  0  0  0  0
    3.2289   -1.2372    0.4583 H   0  0  0  0  0  0  0  0  0  0  0  0
    0.3447    0.5334   -1.1228 H   0  0  0  0  0  0  0  0  0  0  0  0
   -0.0633    2.5523    0.3077 H   0  0  0  0  0  0  0  0  0  0  0  0
   -0.5416    1.5170    1.7013 H   0  0  0  0  0  0  0  0  0  0  0  0
   -1.2819   -0.3857    1.3711 H   0  0  0  0  0  0  0  0  0  0  0  0
   -1.2703   -2.2217   -0.4800 H   0  0  0  0  0  0  0  0  0  0  0  0
  1  2  2  0
  2  3  1  0
  3  4  1  0
  4  5  1  0
  5  6  1  0
  6  7  1  0
  7  8  1  0
  8  9  2  0
  7  4  1  0
  2 10  1  0
  4 11  1  0
  5 12  1  0
  5 13  1  0
  7 14  1  0
  8 15  1  0
M  END
