
     RDKit          3D

 16 16  0  0  0  0  0  0  0  0999 V2000
    3.0656    1.4183    0.0336 O   0  0  0  0  0  0  0  0  0  0  0  0
    2.9465    0.2179    0.3736 C   0  0  0  0  0  0  0  0  0  0  0  0
    1.7139   -0.3569    0.1174 O   0  0  0  0  0  0  0  0  0  0  0  0
    0.6697    0.3645   -0.4847 C   0  0  0  0  0  0  0  0  0  0  0  0
   -0.5247   -0.5757   -0.6110 C   0  0  0  0  0  0  0  0  0  0  0  0
   -1.3166   -0.7591    0.6513 C   0  0  0  0  0  0  0  0  0  0  0  0
   -2.1394    0.3714    0.0432 C   0  0  0  0  0  0  0  0  0  0  0  0
   -1.6408   -0.0041   -1.1910 O   0  0  0  0  0  0  0  0  0  0  0  0
    3.6960   -0.3986    0.8372 H   0  0  0  0  0  0  0  0  0  0  0  0
    0.4187    1.2998    0.0019 H   0  0  0  0  0  0  0  0  0  0  0  0
    0.9852    0.5910   -1.5311 H   0  0  0  0  0  0  0  0  0  0  0  0
   -0.2505   -1.5323   -1.0944 H   0  0  0  0  0  0  0  0  0  0  0  0
   -1.8467   -1.7238    0.6533 H   0  0  0  0  0  0  0  0  0  0  0  0
   -0.7940   -0.4854    1.5844 H   0  0  0  0  0  0  0  0  0  0  0  0
   -1.7638    1.3566    0.4211 H   0  0  0  0  0  0  0  0  0  0  0  0
   -3.2192    0.2165    0.1952 H   0  0  0  0  0  0  0  0  0  0  0  0
  1  2  2  0
  2  3  1  0
  3  4  1  0
  4  5  1  0
  5  6  1  0
  6  7  1  0
  7  8  1  0
  8  5  1  0
  2  9  1  0
  4 10  1  0
  4 11  1  0
  5 12  1  0
  6 13  1  0
  6 14  1  0
  7 15  1  0
  7 16  1  0
M  END
