
     RDKit          3D

 13 13  0  0  0  0  0  0  0  0999 V2000
    2.5495   -0.7684   -1.0199 O   0  0  0  0  0  0  0  0  0  0  0  0
    2.3477   -0.2485    0.1077 C   0  0  0  0  0  0  0  0  0  0  0  0
    1.0406   -0.0683    0.4985 O   0  0  0  0  0  0  0  0  0  0  0  0
   -0.0691   -0.4446   -0.3178 C   0  0  0  0  0  0  0  0  0  0  0  0
   -1.3198   -0.7175    0.4099 C   0  0  0  0  0  0  0  0  0  0  0  0
   -1.2444    0.5541   -0.3369 C   0  0  0  0  0  0  0  0  0  0  0  0
   -0.9993    1.7658    0.2825 O   0  0  0  0  0  0  0  0  0  0  0  0
    3.1425    0.0594    0.7755 H   0  0  0  0  0  0  0  0  0  0  0  0
    0.1282   -0.8987   -1.3024 H   0  0  0  0  0  0  0  0  0  0  0  0
   -2.0635   -1.4629    0.0398 H   0  0  0  0  0  0  0  0  0  0  0  0
   -1.3171   -0.6789    1.5304 H   0  0  0  0  0  0  0  0  0  0  0  0
   -1.8258    0.6408   -1.2690 H   0  0  0  0  0  0  0  0  0  0  0  0
   -0.3695    2.2679   -0.3243 H   0  0  0  0  0  0  0  0  0  0  0  0
  1  2  2  0
  2  3  1  0
  3  4  1  0
  4  5  1  0
  5  6  1  0
  6  7  1  0
  6  4  1  0
  2  8  1  0
  4  9  1  0
  5 10  1  0
  5 11  1  0
  6 12  1  0
  7 13  1  0
M  END
