
     RDKit          3D

 17 17  0  0  0  0  0  0  0  0999 V2000
    3.2366   -0.0882   -0.9210 O   0  0  0  0  0  0  0  0  0  0  0  0
    2.4363    0.8796   -0.8723 C   0  0  0  0  0  0  0  0  0  0  0  0
    1.1620    0.6807   -0.3821 O   0  0  0  0  0  0  0  0  0  0  0  0
    0.7464   -0.5956    0.0651 C   0  0  0  0  0  0  0  0  0  0  0  0
   -0.6780   -0.5498    0.5495 C   0  0  0  0  0  0  0  0  0  0  0  0
   -1.2098   -1.7169    1.0112 O   0  0  0  0  0  0  0  0  0  0  0  0
   -0.9445    0.6246    1.4595 C   0  0  0  0  0  0  0  0  0  0  0  0
   -2.2457    0.6477    0.9100 O   0  0  0  0  0  0  0  0  0  0  0  0
   -1.6319    0.2485   -0.3009 C   0  0  0  0  0  0  0  0  0  0  0  0
    2.7656    1.8636   -1.2201 H   0  0  0  0  0  0  0  0  0  0  0  0
    1.3711   -0.9104    0.9434 H   0  0  0  0  0  0  0  0  0  0  0  0
    0.9041   -1.3454   -0.7102 H   0  0  0  0  0  0  0  0  0  0  0  0
   -1.2673   -2.4448    0.3707 H   0  0  0  0  0  0  0  0  0  0  0  0
   -0.9019    0.4094    2.5281 H   0  0  0  0  0  0  0  0  0  0  0  0
   -0.3129    1.4893    1.1129 H   0  0  0  0  0  0  0  0  0  0  0  0
   -1.1643    1.1572   -0.7452 H   0  0  0  0  0  0  0  0  0  0  0  0
   -2.2659   -0.3496   -0.9623 H   0  0  0  0  0  0  0  0  0  0  0  0
  1  2  2  0
  2  3  1  0
  3  4  1  0
  4  5  1  0
  5  6  1  0
  5  7  1  0
  7  8  1  0
  8  9  1  0
  9  5  1  0
  2 10  1  0
  4 11  1  0
  4 12  1  0
  6 13  1  0
  7 14  1  0
  7 15  1  0
  9 16  1  0
  9 17  1  0
M  END
