
     RDKit          3D

 15 15  0  0  0  0  0  0  0  0999 V2000
    2.4695    0.5405   -1.6940 O   0  0  0  0  0  0  0  0  0  0  0  0
    2.6759   -0.0519   -0.5980 C   0  0  0  0  0  0  0  0  0  0  0  0
    1.5817   -0.2128    0.2031 O   0  0  0  0  0  0  0  0  0  0  0  0
    0.2802    0.2065   -0.0670 C   0  0  0  0  0  0  0  0  0  0  0  0
   -0.3649    0.9916    0.9663 C   0  0  0  0  0  0  0  0  0  0  0  0
   -1.6314    0.6526    1.0472 C   0  0  0  0  0  0  0  0  0  0  0  0
   -1.9430   -0.3910    0.0738 C   0  0  0  0  0  0  0  0  0  0  0  0
   -3.0545   -0.7071   -0.3967 O   0  0  0  0  0  0  0  0  0  0  0  0
   -0.6013   -1.0083   -0.2383 C   0  0  0  0  0  0  0  0  0  0  0  0
    3.6818   -0.3970   -0.3472 H   0  0  0  0  0  0  0  0  0  0  0  0
    0.2686    0.7149   -1.0799 H   0  0  0  0  0  0  0  0  0  0  0  0
    0.0461    1.7664    1.6287 H   0  0  0  0  0  0  0  0  0  0  0  0
   -2.4092    1.0460    1.7189 H   0  0  0  0  0  0  0  0  0  0  0  0
   -0.6461   -1.3515   -1.2884 H   0  0  0  0  0  0  0  0  0  0  0  0
   -0.3535   -1.7989    0.4801 H   0  0  0  0  0  0  0  0  0  0  0  0
  1  2  2  0
  2  3  1  0
  3  4  1  0
  4  5  1  0
  5  6  2  0
  6  7  1  0
  7  8  2  0
  7  9  1  0
  9  4  1  0
  2 10  1  0
  4 11  1  0
  5 12  1  0
  6 13  1  0
  9 14  1  0
  9 15  1  0
M  END
