
     RDKit          3D

 15 16  0  0  0  0  0  0  0  0999 V2000
   -1.7521    1.9889   -0.2335 O   0  0  0  0  0  0  0  0  0  0  0  0
   -2.1483    0.8917    0.2115 C   0  0  0  0  0  0  0  0  0  0  0  0
   -1.3744   -0.2071    0.0857 O   0  0  0  0  0  0  0  0  0  0  0  0
   -0.0913   -0.3031   -0.5019 C   0  0  0  0  0  0  0  0  0  0  0  0
    0.2675   -1.8131   -0.4398 C   0  0  0  0  0  0  0  0  0  0  0  0
    0.2467   -1.5123    0.9271 O   0  0  0  0  0  0  0  0  0  0  0  0
    1.1135   -0.5036    0.5105 C   0  0  0  0  0  0  0  0  0  0  0  0
    0.8058    0.7474   -0.1431 C   0  0  0  0  0  0  0  0  0  0  0  0
    0.5591    1.8204    0.7131 O   0  0  0  0  0  0  0  0  0  0  0  0
   -3.1275    0.9041    0.6865 H   0  0  0  0  0  0  0  0  0  0  0  0
    1.2174   -2.0506   -0.8996 H   0  0  0  0  0  0  0  0  0  0  0  0
   -0.5716   -2.4265   -0.8136 H   0  0  0  0  0  0  0  0  0  0  0  0
    2.0218   -1.0101    0.0818 H   0  0  0  0  0  0  0  0  0  0  0  0
    1.4552    1.1093   -1.0027 H   0  0  0  0  0  0  0  0  0  0  0  0
    1.3780    2.3645    0.8182 H   0  0  0  0  0  0  0  0  0  0  0  0
  1  2  2  0
  2  3  1  0
  3  4  1  0
  4  5  1  0
  5  6  1  0
  6  7  1  0
  7  8  1  0
  8  9  1  0
  7  4  1  0
  8  4  1  0
  2 10  1  0
  5 11  1  0
  5 12  1  0
  7 13  1  0
  8 14  1  0
  9 15  1  0
M  END
