
     RDKit          3D

 17 17  0  0  0  0  0  0  0  0999 V2000
    1.9914   -1.3734   -0.3309 O   0  0  0  0  0  0  0  0  0  0  0  0
    2.5508   -0.5694    0.4563 C   0  0  0  0  0  0  0  0  0  0  0  0
    2.1065    0.7351    0.4513 O   0  0  0  0  0  0  0  0  0  0  0  0
    1.0604    1.1383   -0.4121 C   0  0  0  0  0  0  0  0  0  0  0  0
   -0.2001    0.3979   -0.1695 C   0  0  0  0  0  0  0  0  0  0  0  0
   -0.8459   -0.3564   -1.0378 C   0  0  0  0  0  0  0  0  0  0  0  0
   -2.0472   -0.8884   -0.3472 C   0  0  0  0  0  0  0  0  0  0  0  0
   -1.8583   -0.6675    1.0044 O   0  0  0  0  0  0  0  0  0  0  0  0
   -0.9510    0.3831    1.1037 C   0  0  0  0  0  0  0  0  0  0  0  0
    3.3626   -0.8732    1.1292 H   0  0  0  0  0  0  0  0  0  0  0  0
    0.9184    2.2411   -0.2146 H   0  0  0  0  0  0  0  0  0  0  0  0
    1.3645    1.0797   -1.4813 H   0  0  0  0  0  0  0  0  0  0  0  0
   -0.5881   -0.5799   -2.0789 H   0  0  0  0  0  0  0  0  0  0  0  0
   -2.9107   -0.2805   -0.6746 H   0  0  0  0  0  0  0  0  0  0  0  0
   -2.2149   -1.9529   -0.5931 H   0  0  0  0  0  0  0  0  0  0  0  0
   -1.4720    1.3733    1.2467 H   0  0  0  0  0  0  0  0  0  0  0  0
   -0.2665    0.1933    1.9483 H   0  0  0  0  0  0  0  0  0  0  0  0
  1  2  2  0
  2  3  1  0
  3  4  1  0
  4  5  1  0
  5  6  2  0
  6  7  1  0
  7  8  1  0
  8  9  1  0
  9  5  1  0
  2 10  1  0
  4 11  1  0
  4 12  1  0
  6 13  1  0
  7 14  1  0
  7 15  1  0
  9 16  1  0
  9 17  1  0
M  END
