
     RDKit          3D

 17 17  0  0  0  0  0  0  0  0999 V2000
    2.2672    1.8963    0.5384 O   0  0  0  0  0  0  0  0  0  0  0  0
    2.4870    1.2299   -0.5269 C   0  0  0  0  0  0  0  0  0  0  0  0
    1.6694    0.1564   -0.7812 O   0  0  0  0  0  0  0  0  0  0  0  0
    0.6190   -0.2053    0.1000 C   0  0  0  0  0  0  0  0  0  0  0  0
    0.8147   -1.6176    0.5629 C   0  0  0  0  0  0  0  0  0  0  0  0
    0.0183   -2.1271    1.3324 O   0  0  0  0  0  0  0  0  0  0  0  0
   -0.7299   -0.1163   -0.5729 C   0  0  0  0  0  0  0  0  0  0  0  0
   -1.9180   -0.4952    0.3356 C   0  0  0  0  0  0  0  0  0  0  0  0
   -1.7419    0.8761   -0.2015 C   0  0  0  0  0  0  0  0  0  0  0  0
    3.3024    1.5530   -1.1607 H   0  0  0  0  0  0  0  0  0  0  0  0
    0.6124    0.5046    0.9507 H   0  0  0  0  0  0  0  0  0  0  0  0
    1.6732   -2.1630    0.1975 H   0  0  0  0  0  0  0  0  0  0  0  0
   -0.7278   -0.5902   -1.5920 H   0  0  0  0  0  0  0  0  0  0  0  0
   -2.6809   -1.1646   -0.1011 H   0  0  0  0  0  0  0  0  0  0  0  0
   -1.7371   -0.5995    1.4209 H   0  0  0  0  0  0  0  0  0  0  0  0
   -1.4703    1.6950    0.5005 H   0  0  0  0  0  0  0  0  0  0  0  0
   -2.4577    1.1674   -1.0025 H   0  0  0  0  0  0  0  0  0  0  0  0
  1  2  2  0
  2  3  1  0
  3  4  1  0
  4  5  1  0
  5  6  2  0
  4  7  1  0
  7  8  1  0
  8  9  1  0
  9  7  1  0
  2 10  1  0
  4 11  1  0
  5 12  1  0
  7 13  1  0
  8 14  1  0
  8 15  1  0
  9 16  1  0
  9 17  1  0
M  END
