
     RDKit          3D

 17 17  0  0  0  0  0  0  0  0999 V2000
    4.5662   -0.6623   -1.1607 O   0  0  0  0  0  0  0  0  0  0  0  0
    3.8126    0.2139   -1.6593 C   0  0  0  0  0  0  0  0  0  0  0  0
    2.5210    0.2930   -1.1556 O   0  0  0  0  0  0  0  0  0  0  0  0
    2.0308   -0.5371   -0.1430 C   0  0  0  0  0  0  0  0  0  0  0  0
    0.6396   -0.1682    0.1286 C   0  0  0  0  0  0  0  0  0  0  0  0
   -0.5105    0.1412    0.3328 C   0  0  0  0  0  0  0  0  0  0  0  0
   -1.9249    0.4950    0.5808 C   0  0  0  0  0  0  0  0  0  0  0  0
   -2.9699   -0.5171    0.1410 C   0  0  0  0  0  0  0  0  0  0  0  0
   -2.7379    0.7220   -0.6310 C   0  0  0  0  0  0  0  0  0  0  0  0
    4.1749    0.8787   -2.4565 H   0  0  0  0  0  0  0  0  0  0  0  0
    2.6575   -0.5055    0.7885 H   0  0  0  0  0  0  0  0  0  0  0  0
    2.0550   -1.6168   -0.4563 H   0  0  0  0  0  0  0  0  0  0  0  0
   -2.1280    1.1361    1.4502 H   0  0  0  0  0  0  0  0  0  0  0  0
   -2.5647   -1.5021   -0.1851 H   0  0  0  0  0  0  0  0  0  0  0  0
   -3.8385   -0.5608    0.8159 H   0  0  0  0  0  0  0  0  0  0  0  0
   -3.5444    1.4859   -0.5661 H   0  0  0  0  0  0  0  0  0  0  0  0
   -2.2388    0.7041   -1.6134 H   0  0  0  0  0  0  0  0  0  0  0  0
  1  2  2  0
  2  3  1  0
  3  4  1  0
  4  5  1  0
  5  6  3  0
  6  7  1  0
  7  8  1  0
  8  9  1  0
  9  7  1  0
  2 10  1  0
  4 11  1  0
  4 12  1  0
  7 13  1  0
  8 14  1  0
  8 15  1  0
  9 16  1  0
  9 17  1  0
M  END
