
     RDKit          3D

 19 19  0  0  0  0  0  0  0  0999 V2000
    1.8937    1.7258    0.0587 O   0  0  0  0  0  0  0  0  0  0  0  0
    2.1943    0.7446    0.7644 C   0  0  0  0  0  0  0  0  0  0  0  0
    1.8582   -0.5012    0.3393 O   0  0  0  0  0  0  0  0  0  0  0  0
    1.1980   -0.9153   -0.7906 C   0  0  0  0  0  0  0  0  0  0  0  0
   -0.2334   -0.4814   -0.9008 C   0  0  0  0  0  0  0  0  0  0  0  0
   -0.5105    0.9456   -0.9283 C   0  0  0  0  0  0  0  0  0  0  0  0
   -1.2844    1.3253    0.1067 C   0  0  0  0  0  0  0  0  0  0  0  0
   -1.5919    0.1427    0.9292 C   0  0  0  0  0  0  0  0  0  0  0  0
   -0.9298   -1.0422    0.3280 C   0  0  0  0  0  0  0  0  0  0  0  0
    2.7159    0.9185    1.6975 H   0  0  0  0  0  0  0  0  0  0  0  0
    1.1349   -2.0520   -0.7096 H   0  0  0  0  0  0  0  0  0  0  0  0
    1.7622   -0.7216   -1.7420 H   0  0  0  0  0  0  0  0  0  0  0  0
   -0.6589   -0.9992   -1.8184 H   0  0  0  0  0  0  0  0  0  0  0  0
   -0.1653    1.6476   -1.6757 H   0  0  0  0  0  0  0  0  0  0  0  0
   -1.6424    2.3173    0.3338 H   0  0  0  0  0  0  0  0  0  0  0  0
   -1.1266    0.3266    1.9405 H   0  0  0  0  0  0  0  0  0  0  0  0
   -2.6976    0.0011    1.0310 H   0  0  0  0  0  0  0  0  0  0  0  0
   -1.6726   -1.8174    0.0116 H   0  0  0  0  0  0  0  0  0  0  0  0
   -0.2439   -1.5650    1.0246 H   0  0  0  0  0  0  0  0  0  0  0  0
  1  2  2  0
  2  3  1  0
  3  4  1  0
  4  5  1  0
  5  6  1  0
  6  7  2  0
  7  8  1  0
  8  9  1  0
  9  5  1  0
  2 10  1  0
  4 11  1  0
  4 12  1  0
  5 13  1  0
  6 14  1  0
  7 15  1  0
  8 16  1  0
  8 17  1  0
  9 18  1  0
  9 19  1  0
M  END
