
     RDKit          3D

 16 16  0  0  0  0  0  0  0  0999 V2000
    2.7221   -1.6982   -0.8011 O   0  0  0  0  0  0  0  0  0  0  0  0
    2.7784   -0.6059   -0.1875 C   0  0  0  0  0  0  0  0  0  0  0  0
    1.5782    0.0154    0.1015 O   0  0  0  0  0  0  0  0  0  0  0  0
    0.3152   -0.4540   -0.2226 C   0  0  0  0  0  0  0  0  0  0  0  0
   -0.6169    0.4813   -0.9176 C   0  0  0  0  0  0  0  0  0  0  0  0
   -1.5264    0.4983    0.3061 C   0  0  0  0  0  0  0  0  0  0  0  0
   -1.4963    1.7023    1.0115 O   0  0  0  0  0  0  0  0  0  0  0  0
   -0.6680   -0.5957    0.9109 C   0  0  0  0  0  0  0  0  0  0  0  0
    3.6889   -0.1256    0.1255 H   0  0  0  0  0  0  0  0  0  0  0  0
    0.4014   -1.4385   -0.7690 H   0  0  0  0  0  0  0  0  0  0  0  0
   -0.2290    1.4785   -1.1853 H   0  0  0  0  0  0  0  0  0  0  0  0
   -1.1589    0.0098   -1.7603 H   0  0  0  0  0  0  0  0  0  0  0  0
   -2.5779    0.2105    0.0990 H   0  0  0  0  0  0  0  0  0  0  0  0
   -1.7206    2.4683    0.4637 H   0  0  0  0  0  0  0  0  0  0  0  0
   -0.2712   -0.3817    1.9033 H   0  0  0  0  0  0  0  0  0  0  0  0
   -1.2190   -1.5648    0.9219 H   0  0  0  0  0  0  0  0  0  0  0  0
  1  2  2  0
  2  3  1  0
  3  4  1  0
  4  5  1  0
  5  6  1  0
  6  7  1  0
  6  8  1  0
  8  4  1  0
  2  9  1  0
  4 10  1  0
  5 11  1  0
  5 12  1  0
  6 13  1  0
  7 14  1  0
  8 15  1  0
  8 16  1  0
M  END
