
     RDKit          3D

 21 20  0  0  0  0  0  0  0  0999 V2000
   -2.8224    1.5335   -0.7778 O   0  0  0  0  0  0  0  0  0  0  0  0
   -3.5785    0.6589   -0.2975 C   0  0  0  0  0  0  0  0  0  0  0  0
   -2.9434   -0.3686    0.3726 O   0  0  0  0  0  0  0  0  0  0  0  0
   -1.5566   -0.4339    0.5086 C   0  0  0  0  0  0  0  0  0  0  0  0
   -0.7721   -0.4952   -0.7322 C   0  0  0  0  0  0  0  0  0  0  0  0
    0.6968   -0.5709   -0.4032 C   0  0  0  0  0  0  0  0  0  0  0  0
    1.1637    0.6277    0.3797 C   0  0  0  0  0  0  0  0  0  0  0  0
    2.6506    0.4602    0.6506 C   0  0  0  0  0  0  0  0  0  0  0  0
    2.7838   -0.7220    1.3852 O   0  0  0  0  0  0  0  0  0  0  0  0
   -4.6508    0.6316   -0.3552 H   0  0  0  0  0  0  0  0  0  0  0  0
   -1.2721    0.4978    1.0824 H   0  0  0  0  0  0  0  0  0  0  0  0
   -1.3108   -1.3123    1.1379 H   0  0  0  0  0  0  0  0  0  0  0  0
   -0.9014    0.3575   -1.4257 H   0  0  0  0  0  0  0  0  0  0  0  0
   -1.0454   -1.4482   -1.2719 H   0  0  0  0  0  0  0  0  0  0  0  0
    1.2717   -0.6129   -1.3419 H   0  0  0  0  0  0  0  0  0  0  0  0
    0.9185   -1.4667    0.2267 H   0  0  0  0  0  0  0  0  0  0  0  0
    1.0516    1.5460   -0.2258 H   0  0  0  0  0  0  0  0  0  0  0  0
    0.7011    0.7066    1.3858 H   0  0  0  0  0  0  0  0  0  0  0  0
    2.9694    1.3432    1.2371 H   0  0  0  0  0  0  0  0  0  0  0  0
    3.2388    0.3907   -0.2862 H   0  0  0  0  0  0  0  0  0  0  0  0
    3.4075   -1.3230    0.9126 H   0  0  0  0  0  0  0  0  0  0  0  0
  1  2  2  0
  2  3  1  0
  3  4  1  0
  4  5  1  0
  5  6  1  0
  6  7  1  0
  7  8  1  0
  8  9  1  0
  2 10  1  0
  4 11  1  0
  4 12  1  0
  5 13  1  0
  5 14  1  0
  6 15  1  0
  6 16  1  0
  7 17  1  0
  7 18  1  0
  8 19  1  0
  8 20  1  0
  9 21  1  0
M  END
