
     RDKit          3D

 17 17  0  0  0  0  0  0  0  0999 V2000
   -2.3499   -0.0202   -2.0395 O   0  0  0  0  0  0  0  0  0  0  0  0
   -2.2672    0.8926   -1.1649 C   0  0  0  0  0  0  0  0  0  0  0  0
   -1.3816    0.6901   -0.1423 O   0  0  0  0  0  0  0  0  0  0  0  0
   -0.5615   -0.4063    0.0448 C   0  0  0  0  0  0  0  0  0  0  0  0
   -0.5765   -1.0202    1.4463 C   0  0  0  0  0  0  0  0  0  0  0  0
    0.7520   -1.3838    1.1678 O   0  0  0  0  0  0  0  0  0  0  0  0
    0.8395   -0.1290    0.5627 C   0  0  0  0  0  0  0  0  0  0  0  0
    1.8995    0.0072   -0.4862 C   0  0  0  0  0  0  0  0  0  0  0  0
    1.8970    1.2847   -1.0162 O   0  0  0  0  0  0  0  0  0  0  0  0
   -2.8790    1.7833   -1.2436 H   0  0  0  0  0  0  0  0  0  0  0  0
   -0.5996   -1.2247   -0.6906 H   0  0  0  0  0  0  0  0  0  0  0  0
   -0.5625   -0.2607    2.2546 H   0  0  0  0  0  0  0  0  0  0  0  0
   -1.2754   -1.8544    1.5779 H   0  0  0  0  0  0  0  0  0  0  0  0
    0.8348    0.6400    1.3588 H   0  0  0  0  0  0  0  0  0  0  0  0
    2.8832   -0.2166    0.0084 H   0  0  0  0  0  0  0  0  0  0  0  0
    1.7036   -0.7622   -1.2610 H   0  0  0  0  0  0  0  0  0  0  0  0
    1.6435    1.9802   -0.3770 H   0  0  0  0  0  0  0  0  0  0  0  0
  1  2  2  0
  2  3  1  0
  3  4  1  0
  4  5  1  0
  5  6  1  0
  6  7  1  0
  7  8  1  0
  8  9  1  0
  7  4  1  0
  2 10  1  0
  4 11  1  0
  5 12  1  0
  5 13  1  0
  7 14  1  0
  8 15  1  0
  8 16  1  0
  9 17  1  0
M  END
