
     RDKit          3D

 17 17  0  0  0  0  0  0  0  0999 V2000
    1.6753    1.4548   -1.4780 O   0  0  0  0  0  0  0  0  0  0  0  0
    2.1780    0.9284   -0.4565 C   0  0  0  0  0  0  0  0  0  0  0  0
    1.3656    0.1683    0.3105 O   0  0  0  0  0  0  0  0  0  0  0  0
    0.0542   -0.1704    0.2281 C   0  0  0  0  0  0  0  0  0  0  0  0
   -0.9225    0.9735    0.2952 C   0  0  0  0  0  0  0  0  0  0  0  0
   -0.7201    1.8393   -0.7388 O   0  0  0  0  0  0  0  0  0  0  0  0
   -0.2581   -1.2599    1.2458 C   0  0  0  0  0  0  0  0  0  0  0  0
   -0.3037   -2.2390    0.2807 O   0  0  0  0  0  0  0  0  0  0  0  0
   -0.4103   -1.2429   -0.6857 C   0  0  0  0  0  0  0  0  0  0  0  0
    3.2461    1.0990   -0.2211 H   0  0  0  0  0  0  0  0  0  0  0  0
   -0.7217    1.5280    1.2410 H   0  0  0  0  0  0  0  0  0  0  0  0
   -1.9346    0.5164    0.2935 H   0  0  0  0  0  0  0  0  0  0  0  0
   -1.2599    1.5825   -1.5249 H   0  0  0  0  0  0  0  0  0  0  0  0
    0.5223   -1.4493    1.9833 H   0  0  0  0  0  0  0  0  0  0  0  0
   -1.2276   -1.1031    1.7492 H   0  0  0  0  0  0  0  0  0  0  0  0
   -1.4781   -1.1310   -0.9651 H   0  0  0  0  0  0  0  0  0  0  0  0
    0.1949   -1.4944   -1.5572 H   0  0  0  0  0  0  0  0  0  0  0  0
  1  2  2  0
  2  3  1  0
  3  4  1  0
  4  5  1  0
  5  6  1  0
  4  7  1  0
  7  8  1  0
  8  9  1  0
  9  4  1  0
  2 10  1  0
  5 11  1  0
  5 12  1  0
  6 13  1  0
  7 14  1  0
  7 15  1  0
  9 16  1  0
  9 17  1  0
M  END
