
     RDKit          3D

 15 16  0  0  0  0  0  0  0  0999 V2000
    2.7997   -0.3352    1.1747 O   0  0  0  0  0  0  0  0  0  0  0  0
    2.5920   -0.8095    0.0216 C   0  0  0  0  0  0  0  0  0  0  0  0
    1.3607   -0.6039   -0.5871 O   0  0  0  0  0  0  0  0  0  0  0  0
    0.3784    0.1185    0.0797 C   0  0  0  0  0  0  0  0  0  0  0  0
   -0.9915   -0.4961    0.1347 C   0  0  0  0  0  0  0  0  0  0  0  0
   -1.3080   -0.9301    1.4025 O   0  0  0  0  0  0  0  0  0  0  0  0
   -1.6214    0.7801   -0.3249 C   0  0  0  0  0  0  0  0  0  0  0  0
   -1.1389    2.0043    0.0368 O   0  0  0  0  0  0  0  0  0  0  0  0
   -0.2297    1.2701   -0.6859 C   0  0  0  0  0  0  0  0  0  0  0  0
    3.4016   -1.3712   -0.4585 H   0  0  0  0  0  0  0  0  0  0  0  0
    0.6907    0.4784    1.0846 H   0  0  0  0  0  0  0  0  0  0  0  0
   -1.1804   -1.3015   -0.6098 H   0  0  0  0  0  0  0  0  0  0  0  0
   -2.2784   -0.9893    1.5737 H   0  0  0  0  0  0  0  0  0  0  0  0
   -2.4132    0.7830   -1.0965 H   0  0  0  0  0  0  0  0  0  0  0  0
   -0.0616    1.4026   -1.7457 H   0  0  0  0  0  0  0  0  0  0  0  0
  1  2  2  0
  2  3  1  0
  3  4  1  0
  4  5  1  0
  5  6  1  0
  5  7  1  0
  7  8  1  0
  8  9  1  0
  9  4  1  0
  9  7  1  0
  2 10  1  0
  4 11  1  0
  5 12  1  0
  6 13  1  0
  7 14  1  0
  9 15  1  0
M  END
