
     RDKit          3D

 17 18  0  0  0  0  0  0  0  0999 V2000
    2.4836   -1.3917    0.1983 O   0  0  0  0  0  0  0  0  0  0  0  0
    2.4262   -0.6865   -0.8549 C   0  0  0  0  0  0  0  0  0  0  0  0
    1.3233    0.0973   -1.1590 O   0  0  0  0  0  0  0  0  0  0  0  0
    0.2496    0.0878   -0.2487 C   0  0  0  0  0  0  0  0  0  0  0  0
   -0.3691   -1.2494   -0.0267 C   0  0  0  0  0  0  0  0  0  0  0  0
   -1.7640   -0.6610   -0.0776 C   0  0  0  0  0  0  0  0  0  0  0  0
   -1.1012    0.5928   -0.6545 C   0  0  0  0  0  0  0  0  0  0  0  0
   -0.2805    1.3414    0.2919 C   0  0  0  0  0  0  0  0  0  0  0  0
    0.3041    2.5105   -0.1661 O   0  0  0  0  0  0  0  0  0  0  0  0
    3.2909   -0.7352   -1.4999 H   0  0  0  0  0  0  0  0  0  0  0  0
   -0.1011   -1.7834    0.8863 H   0  0  0  0  0  0  0  0  0  0  0  0
   -0.2547   -1.9356   -0.9168 H   0  0  0  0  0  0  0  0  0  0  0  0
   -2.4567   -1.1245   -0.7811 H   0  0  0  0  0  0  0  0  0  0  0  0
   -2.1581   -0.5423    0.9430 H   0  0  0  0  0  0  0  0  0  0  0  0
   -1.2581    0.8422   -1.6973 H   0  0  0  0  0  0  0  0  0  0  0  0
   -0.6789    1.4222    1.3326 H   0  0  0  0  0  0  0  0  0  0  0  0
    0.3448    3.2155    0.5170 H   0  0  0  0  0  0  0  0  0  0  0  0
  1  2  2  0
  2  3  1  0
  3  4  1  0
  4  5  1  0
  5  6  1  0
  6  7  1  0
  7  8  1  0
  8  9  1  0
  7  4  1  0
  8  4  1  0
  2 10  1  0
  5 11  1  0
  5 12  1  0
  6 13  1  0
  6 14  1  0
  7 15  1  0
  8 16  1  0
  9 17  1  0
M  END
