
     RDKit          3D

 17 17  0  0  0  0  0  0  0  0999 V2000
    2.0459    1.4489   -0.2751 O   0  0  0  0  0  0  0  0  0  0  0  0
    2.8080    0.5545    0.1679 C   0  0  0  0  0  0  0  0  0  0  0  0
    2.2320   -0.4817    0.8809 O   0  0  0  0  0  0  0  0  0  0  0  0
    0.8618   -0.5294    1.0982 C   0  0  0  0  0  0  0  0  0  0  0  0
    0.0268   -0.5767   -0.1339 C   0  0  0  0  0  0  0  0  0  0  0  0
   -1.4860   -0.6368    0.0863 C   0  0  0  0  0  0  0  0  0  0  0  0
   -2.2259   -1.4212   -0.7982 O   0  0  0  0  0  0  0  0  0  0  0  0
   -0.8557    0.6187   -0.3832 C   0  0  0  0  0  0  0  0  0  0  0  0
   -0.9075    1.6483    0.5859 O   0  0  0  0  0  0  0  0  0  0  0  0
    3.8948    0.6004   -0.0090 H   0  0  0  0  0  0  0  0  0  0  0  0
    0.4940    0.2955    1.7572 H   0  0  0  0  0  0  0  0  0  0  0  0
    0.6581   -1.4619    1.7005 H   0  0  0  0  0  0  0  0  0  0  0  0
    0.4030   -1.0715   -1.0517 H   0  0  0  0  0  0  0  0  0  0  0  0
   -1.8290   -0.7449    1.1367 H   0  0  0  0  0  0  0  0  0  0  0  0
   -3.1729   -1.0807   -0.7405 H   0  0  0  0  0  0  0  0  0  0  0  0
   -1.0916    0.9275   -1.4193 H   0  0  0  0  0  0  0  0  0  0  0  0
   -1.8556    1.9111    0.6985 H   0  0  0  0  0  0  0  0  0  0  0  0
  1  2  2  0
  2  3  1  0
  3  4  1  0
  4  5  1  0
  5  6  1  0
  6  7  1  0
  6  8  1  0
  8  9  1  0
  8  5  1  0
  2 10  1  0
  4 11  1  0
  4 12  1  0
  5 13  1  0
  6 14  1  0
  7 15  1  0
  8 16  1  0
  9 17  1  0
M  END
