
     RDKit          3D

 17 17  0  0  0  0  0  0  0  0999 V2000
    2.8841    0.6290    0.3797 O   0  0  0  0  0  0  0  0  0  0  0  0
    2.7510   -0.4259    1.0451 C   0  0  0  0  0  0  0  0  0  0  0  0
    1.7794   -1.3082    0.6648 O   0  0  0  0  0  0  0  0  0  0  0  0
    0.8900   -1.1543   -0.4181 C   0  0  0  0  0  0  0  0  0  0  0  0
    0.0748    0.0775   -0.1738 C   0  0  0  0  0  0  0  0  0  0  0  0
   -0.6085   -0.1281    1.0404 O   0  0  0  0  0  0  0  0  0  0  0  0
   -1.9150    0.2581    0.8589 C   0  0  0  0  0  0  0  0  0  0  0  0
   -1.8116    1.0824   -0.4086 C   0  0  0  0  0  0  0  0  0  0  0  0
   -0.9105    0.2715   -1.1361 O   0  0  0  0  0  0  0  0  0  0  0  0
    3.4199   -0.5920    1.9010 H   0  0  0  0  0  0  0  0  0  0  0  0
    1.4280   -1.0924   -1.3887 H   0  0  0  0  0  0  0  0  0  0  0  0
    0.2211   -2.0474   -0.4882 H   0  0  0  0  0  0  0  0  0  0  0  0
    0.6757    0.9975   -0.1721 H   0  0  0  0  0  0  0  0  0  0  0  0
   -2.5252   -0.6342    0.6002 H   0  0  0  0  0  0  0  0  0  0  0  0
   -2.3358    0.8289    1.7082 H   0  0  0  0  0  0  0  0  0  0  0  0
   -1.2562    2.0199   -0.1945 H   0  0  0  0  0  0  0  0  0  0  0  0
   -2.7610    1.2179   -0.9152 H   0  0  0  0  0  0  0  0  0  0  0  0
  1  2  2  0
  2  3  1  0
  3  4  1  0
  4  5  1  0
  5  6  1  0
  6  7  1  0
  7  8  1  0
  8  9  1  0
  9  5  1  0
  2 10  1  0
  4 11  1  0
  4 12  1  0
  5 13  1  0
  7 14  1  0
  7 15  1  0
  8 16  1  0
  8 17  1  0
M  END
