
     RDKit          3D

 19 20  0  0  0  0  0  0  0  0999 V2000
   -2.6363    1.5847    0.0216 O   0  0  0  0  0  0  0  0  0  0  0  0
   -2.9058    0.4005   -0.2469 C   0  0  0  0  0  0  0  0  0  0  0  0
   -1.8648   -0.4872   -0.2258 O   0  0  0  0  0  0  0  0  0  0  0  0
   -0.5796   -0.1096    0.0745 C   0  0  0  0  0  0  0  0  0  0  0  0
    0.1988    0.8965   -0.7044 C   0  0  0  0  0  0  0  0  0  0  0  0
    1.6674    0.5358   -0.5395 C   0  0  0  0  0  0  0  0  0  0  0  0
    1.6240   -0.9435   -0.2950 C   0  0  0  0  0  0  0  0  0  0  0  0
    0.3853   -1.2035    0.4962 C   0  0  0  0  0  0  0  0  0  0  0  0
   -0.1152   -0.2654    1.5182 C   0  0  0  0  0  0  0  0  0  0  0  0
   -3.9356    0.1527   -0.4773 H   0  0  0  0  0  0  0  0  0  0  0  0
    0.0070    1.9027   -0.2414 H   0  0  0  0  0  0  0  0  0  0  0  0
   -0.0057    0.9179   -1.7722 H   0  0  0  0  0  0  0  0  0  0  0  0
    2.1387    1.0533    0.2940 H   0  0  0  0  0  0  0  0  0  0  0  0
    2.2273    0.7879   -1.4854 H   0  0  0  0  0  0  0  0  0  0  0  0
    2.5475   -1.3427    0.1739 H   0  0  0  0  0  0  0  0  0  0  0  0
    1.5152   -1.4701   -1.2776 H   0  0  0  0  0  0  0  0  0  0  0  0
    0.0286   -2.2490    0.4913 H   0  0  0  0  0  0  0  0  0  0  0  0
    0.5354    0.5360    1.9407 H   0  0  0  0  0  0  0  0  0  0  0  0
   -0.8323   -0.6971    2.2551 H   0  0  0  0  0  0  0  0  0  0  0  0
  1  2  2  0
  2  3  1  0
  3  4  1  0
  4  5  1  0
  5  6  1  0
  6  7  1  0
  7  8  1  0
  8  9  1  0
  8  4  1  0
  9  4  1  0
  2 10  1  0
  5 11  1  0
  5 12  1  0
  6 13  1  0
  6 14  1  0
  7 15  1  0
  7 16  1  0
  8 17  1  0
  9 18  1  0
  9 19  1  0
M  END
