
     RDKit          3D

 21 22  0  0  0  0  0  0  0  0999 V2000
   -0.1936   -0.5478    1.5615 O   0  0  0  0  0  0  0  0  0  0  0  0
   -0.6012   -0.0853    0.3374 C   0  0  0  0  0  0  0  0  0  0  0  0
    0.2385   -0.4448   -0.8294 C   0  0  0  0  0  0  0  0  0  0  0  0
    1.6370   -0.0110   -0.8449 C   0  0  0  0  0  0  0  0  0  0  0  0
    2.5224   -0.5280    0.3065 C   0  0  0  0  0  0  0  0  0  0  0  0
    2.2656    0.9113    0.1076 C   0  0  0  0  0  0  0  0  0  0  0  0
   -1.9777   -0.7232    0.0875 C   0  0  0  0  0  0  0  0  0  0  0  0
   -3.1545    0.0752   -0.0532 C   0  0  0  0  0  0  0  0  0  0  0  0
   -2.5352   -0.2962   -1.2239 O   0  0  0  0  0  0  0  0  0  0  0  0
   -0.4384    0.0431    2.3087 H   0  0  0  0  0  0  0  0  0  0  0  0
   -0.7871    1.0107    0.4238 H   0  0  0  0  0  0  0  0  0  0  0  0
    0.1789   -1.5674   -0.9503 H   0  0  0  0  0  0  0  0  0  0  0  0
   -0.3048   -0.0590   -1.7366 H   0  0  0  0  0  0  0  0  0  0  0  0
    2.1367   -0.1017   -1.8478 H   0  0  0  0  0  0  0  0  0  0  0  0
    2.0419   -1.0319    1.1618 H   0  0  0  0  0  0  0  0  0  0  0  0
    3.4880   -0.9966    0.0337 H   0  0  0  0  0  0  0  0  0  0  0  0
    1.6955    1.4366    0.9021 H   0  0  0  0  0  0  0  0  0  0  0  0
    3.1288    1.5135   -0.2462 H   0  0  0  0  0  0  0  0  0  0  0  0
   -2.0516   -1.8193    0.2023 H   0  0  0  0  0  0  0  0  0  0  0  0
   -4.1428   -0.3907    0.1183 H   0  0  0  0  0  0  0  0  0  0  0  0
   -3.1463    1.1642    0.1809 H   0  0  0  0  0  0  0  0  0  0  0  0
  1  2  1  0
  2  3  1  0
  3  4  1  0
  4  5  1  0
  5  6  1  0
  2  7  1  0
  7  8  1  0
  8  9  1  0
  6  4  1  0
  9  7  1  0
  1 10  1  0
  2 11  1  0
  3 12  1  0
  3 13  1  0
  4 14  1  0
  5 15  1  0
  5 16  1  0
  6 17  1  0
  6 18  1  0
  7 19  1  0
  8 20  1  0
  8 21  1  0
M  END
