
     RDKit          3D

 19 20  0  0  0  0  0  0  0  0999 V2000
    0.0416    0.0128   -1.5924 O   0  0  0  0  0  0  0  0  0  0  0  0
    0.3942   -0.2278   -0.2619 C   0  0  0  0  0  0  0  0  0  0  0  0
   -0.8720   -0.1441    0.5505 C   0  0  0  0  0  0  0  0  0  0  0  0
   -1.8572   -1.1877    0.0595 C   0  0  0  0  0  0  0  0  0  0  0  0
   -2.0949   -0.3310   -1.0320 O   0  0  0  0  0  0  0  0  0  0  0  0
   -1.9556    0.7236   -0.0982 C   0  0  0  0  0  0  0  0  0  0  0  0
    1.4402    0.7354    0.1649 C   0  0  0  0  0  0  0  0  0  0  0  0
    2.7989    0.1581    0.4639 C   0  0  0  0  0  0  0  0  0  0  0  0
    1.9152    0.6428    1.4692 O   0  0  0  0  0  0  0  0  0  0  0  0
    0.8098    0.2412   -2.1505 H   0  0  0  0  0  0  0  0  0  0  0  0
    0.7814   -1.2552   -0.1856 H   0  0  0  0  0  0  0  0  0  0  0  0
   -0.7712   -0.0390    1.6261 H   0  0  0  0  0  0  0  0  0  0  0  0
   -2.7846   -1.2140    0.6895 H   0  0  0  0  0  0  0  0  0  0  0  0
   -1.4327   -2.1609   -0.2025 H   0  0  0  0  0  0  0  0  0  0  0  0
   -1.6027    1.6638   -0.5191 H   0  0  0  0  0  0  0  0  0  0  0  0
   -2.8568    0.7400    0.5314 H   0  0  0  0  0  0  0  0  0  0  0  0
    1.3838    1.7846   -0.1961 H   0  0  0  0  0  0  0  0  0  0  0  0
    3.7029    0.7768    0.2935 H   0  0  0  0  0  0  0  0  0  0  0  0
    2.9596   -0.9195    0.3898 H   0  0  0  0  0  0  0  0  0  0  0  0
  1  2  1  0
  2  3  1  0
  3  4  1  0
  4  5  1  0
  5  6  1  0
  2  7  1  0
  7  8  1  0
  8  9  1  0
  6  3  1  0
  9  7  1  0
  1 10  1  0
  2 11  1  0
  3 12  1  0
  4 13  1  0
  4 14  1  0
  6 15  1  0
  6 16  1  0
  7 17  1  0
  8 18  1  0
  8 19  1  0
M  END
