
     RDKit          3D

 21 22  0  0  0  0  0  0  0  0999 V2000
   -0.4610   -1.8609    1.4998 O   0  0  0  0  0  0  0  0  0  0  0  0
   -0.3283   -0.5953    0.8813 C   0  0  0  0  0  0  0  0  0  0  0  0
   -1.4744   -0.4174   -0.0521 C   0  0  0  0  0  0  0  0  0  0  0  0
   -1.6482    0.8078   -0.8701 C   0  0  0  0  0  0  0  0  0  0  0  0
   -2.5222    0.6205    0.3205 C   0  0  0  0  0  0  0  0  0  0  0  0
    1.0195   -0.6130    0.1971 C   0  0  0  0  0  0  0  0  0  0  0  0
    1.6252    0.7062   -0.1239 C   0  0  0  0  0  0  0  0  0  0  0  0
    2.8168    0.2000    0.6647 C   0  0  0  0  0  0  0  0  0  0  0  0
    2.0148   -0.8256    1.1809 O   0  0  0  0  0  0  0  0  0  0  0  0
   -0.7790   -2.5445    0.8648 H   0  0  0  0  0  0  0  0  0  0  0  0
   -0.3636    0.1428    1.6996 H   0  0  0  0  0  0  0  0  0  0  0  0
   -1.9344   -1.3563   -0.4337 H   0  0  0  0  0  0  0  0  0  0  0  0
   -2.0482    0.6514   -1.8924 H   0  0  0  0  0  0  0  0  0  0  0  0
   -0.9377    1.6512   -0.8013 H   0  0  0  0  0  0  0  0  0  0  0  0
   -2.3294    1.2441    1.2182 H   0  0  0  0  0  0  0  0  0  0  0  0
   -3.5838    0.4148    0.1363 H   0  0  0  0  0  0  0  0  0  0  0  0
    1.1345   -1.3967   -0.5767 H   0  0  0  0  0  0  0  0  0  0  0  0
    1.8530    0.8981   -1.2010 H   0  0  0  0  0  0  0  0  0  0  0  0
    1.1826    1.5942    0.3190 H   0  0  0  0  0  0  0  0  0  0  0  0
    3.6092   -0.2295    0.0249 H   0  0  0  0  0  0  0  0  0  0  0  0
    3.1547    0.9082    1.4501 H   0  0  0  0  0  0  0  0  0  0  0  0
  1  2  1  0
  2  3  1  0
  3  4  1  0
  4  5  1  0
  2  6  1  0
  6  7  1  0
  7  8  1  0
  8  9  1  0
  5  3  1  0
  9  6  1  0
  1 10  1  0
  2 11  1  0
  3 12  1  0
  4 13  1  0
  4 14  1  0
  5 15  1  0
  5 16  1  0
  6 17  1  0
  7 18  1  0
  7 19  1  0
  8 20  1  0
  8 21  1  0
M  END
