
     RDKit          3D

 19 20  0  0  0  0  0  0  0  0999 V2000
    0.1278   -0.5271    1.5104 O   0  0  0  0  0  0  0  0  0  0  0  0
   -0.4084   -0.7519    0.2512 C   0  0  0  0  0  0  0  0  0  0  0  0
    0.6831   -0.9119   -0.7384 C   0  0  0  0  0  0  0  0  0  0  0  0
    1.5251    0.3308   -0.7845 C   0  0  0  0  0  0  0  0  0  0  0  0
    2.2098    0.7765    0.3744 C   0  0  0  0  0  0  0  0  0  0  0  0
    2.9705    0.0281   -0.6978 O   0  0  0  0  0  0  0  0  0  0  0  0
   -1.3033    0.4244   -0.0689 C   0  0  0  0  0  0  0  0  0  0  0  0
   -2.6878    0.2592   -0.4053 C   0  0  0  0  0  0  0  0  0  0  0  0
   -2.3642    0.4815    0.9714 O   0  0  0  0  0  0  0  0  0  0  0  0
   -0.6044   -0.1381    2.0633 H   0  0  0  0  0  0  0  0  0  0  0  0
   -1.0222   -1.6933    0.3477 H   0  0  0  0  0  0  0  0  0  0  0  0
    0.3316   -1.1313   -1.7685 H   0  0  0  0  0  0  0  0  0  0  0  0
    1.3020   -1.7939   -0.3964 H   0  0  0  0  0  0  0  0  0  0  0  0
    1.4035    0.9718   -1.6870 H   0  0  0  0  0  0  0  0  0  0  0  0
    2.3125    0.1282    1.2641 H   0  0  0  0  0  0  0  0  0  0  0  0
    2.6506    1.7959    0.4706 H   0  0  0  0  0  0  0  0  0  0  0  0
   -0.7861    1.3924   -0.1199 H   0  0  0  0  0  0  0  0  0  0  0  0
   -3.0919   -0.7347   -0.6586 H   0  0  0  0  0  0  0  0  0  0  0  0
   -3.2482    1.0936   -0.8307 H   0  0  0  0  0  0  0  0  0  0  0  0
  1  2  1  0
  2  3  1  0
  3  4  1  0
  4  5  1  0
  5  6  1  0
  2  7  1  0
  7  8  1  0
  8  9  1  0
  6  4  1  0
  9  7  1  0
  1 10  1  0
  2 11  1  0
  3 12  1  0
  3 13  1  0
  4 14  1  0
  5 15  1  0
  5 16  1  0
  7 17  1  0
  8 18  1  0
  8 19  1  0
M  END
