
     RDKit          3D

 18 19  0  0  0  0  0  0  0  0999 V2000
    1.0359   -0.8358   -1.4322 O   0  0  0  0  0  0  0  0  0  0  0  0
    0.2373    0.0074   -0.6956 C   0  0  0  0  0  0  0  0  0  0  0  0
   -0.8017   -0.7221    0.1173 C   0  0  0  0  0  0  0  0  0  0  0  0
   -1.6908    0.2129    0.9372 C   0  0  0  0  0  0  0  0  0  0  0  0
   -2.2380   -0.5995   -0.1865 C   0  0  0  0  0  0  0  0  0  0  0  0
    1.1256    0.7590    0.2790 C   0  0  0  0  0  0  0  0  0  0  0  0
    2.5229    0.3627    0.3989 C   0  0  0  0  0  0  0  0  0  0  0  0
    2.1449    1.5541   -0.2448 O   0  0  0  0  0  0  0  0  0  0  0  0
    0.7337   -0.8324   -2.3749 H   0  0  0  0  0  0  0  0  0  0  0  0
   -0.2080    0.7541   -1.3757 H   0  0  0  0  0  0  0  0  0  0  0  0
   -0.4578   -1.6546    0.6066 H   0  0  0  0  0  0  0  0  0  0  0  0
   -1.8312   -0.1078    1.9913 H   0  0  0  0  0  0  0  0  0  0  0  0
   -1.6192    1.3049    0.7524 H   0  0  0  0  0  0  0  0  0  0  0  0
   -2.5711   -0.0458   -1.1057 H   0  0  0  0  0  0  0  0  0  0  0  0
   -2.9093   -1.4252    0.1307 H   0  0  0  0  0  0  0  0  0  0  0  0
    0.6178    1.2372    1.1455 H   0  0  0  0  0  0  0  0  0  0  0  0
    2.9139   -0.3968   -0.3350 H   0  0  0  0  0  0  0  0  0  0  0  0
    2.9951    0.4278    1.3913 H   0  0  0  0  0  0  0  0  0  0  0  0
  1  2  1  0
  2  3  1  0
  3  4  1  0
  4  5  1  0
  2  6  1  0
  6  7  1  0
  7  8  1  0
  5  3  1  0
  8  6  1  0
  1  9  1  0
  2 10  1  0
  3 11  1  0
  4 12  1  0
  4 13  1  0
  5 14  1  0
  5 15  1  0
  6 16  1  0
  7 17  1  0
  7 18  1  0
M  END
