
     RDKit          3D

 19 20  0  0  0  0  0  0  0  0999 V2000
    0.3816    2.1330   -0.0102 O   0  0  0  0  0  0  0  0  0  0  0  0
    0.3910    0.8045   -0.4985 C   0  0  0  0  0  0  0  0  0  0  0  0
    1.6116    0.1540   -0.0391 C   0  0  0  0  0  0  0  0  0  0  0  0
    1.8618   -0.8022    0.9551 C   0  0  0  0  0  0  0  0  0  0  0  0
    1.7514   -1.2280   -0.4842 O   0  0  0  0  0  0  0  0  0  0  0  0
   -0.9413    0.2389   -0.2759 C   0  0  0  0  0  0  0  0  0  0  0  0
   -1.9278    0.9915   -0.9774 O   0  0  0  0  0  0  0  0  0  0  0  0
   -1.4482   -0.3039    1.0008 C   0  0  0  0  0  0  0  0  0  0  0  0
   -1.2595   -1.2008   -0.1627 C   0  0  0  0  0  0  0  0  0  0  0  0
    0.0127    2.7624   -0.6664 H   0  0  0  0  0  0  0  0  0  0  0  0
    0.4902    0.9567   -1.6211 H   0  0  0  0  0  0  0  0  0  0  0  0
    2.5203    0.7099   -0.4420 H   0  0  0  0  0  0  0  0  0  0  0  0
    1.1991   -1.4796    1.4965 H   0  0  0  0  0  0  0  0  0  0  0  0
    2.9349   -0.9969    1.2594 H   0  0  0  0  0  0  0  0  0  0  0  0
   -1.5832    1.3135   -1.8315 H   0  0  0  0  0  0  0  0  0  0  0  0
   -2.5384   -0.1508    1.2715 H   0  0  0  0  0  0  0  0  0  0  0  0
   -0.8450   -0.3332    1.9112 H   0  0  0  0  0  0  0  0  0  0  0  0
   -2.1662   -1.6069   -0.7028 H   0  0  0  0  0  0  0  0  0  0  0  0
   -0.4447   -1.9622   -0.1827 H   0  0  0  0  0  0  0  0  0  0  0  0
  1  2  1  0
  2  3  1  0
  3  4  1  0
  4  5  1  0
  2  6  1  0
  6  7  1  0
  6  8  1  0
  8  9  1  0
  5  3  1  0
  9  6  1  0
  1 10  1  0
  2 11  1  0
  3 12  1  0
  4 13  1  0
  4 14  1  0
  7 15  1  0
  8 16  1  0
  8 17  1  0
  9 18  1  0
  9 19  1  0
M  END
