
     RDKit          3D

 16 17  0  0  0  0  0  0  0  0999 V2000
    0.2911   -1.1660    1.1330 O   0  0  0  0  0  0  0  0  0  0  0  0
   -0.0605   -0.0402    0.3977 C   0  0  0  0  0  0  0  0  0  0  0  0
    1.1369    0.5814   -0.2830 C   0  0  0  0  0  0  0  0  0  0  0  0
    2.4406    0.0837    0.0386 C   0  0  0  0  0  0  0  0  0  0  0  0
    1.8056   -0.3282   -1.2188 O   0  0  0  0  0  0  0  0  0  0  0  0
   -1.1535   -0.3904   -0.5511 C   0  0  0  0  0  0  0  0  0  0  0  0
   -2.4842    0.2727   -0.3268 C   0  0  0  0  0  0  0  0  0  0  0  0
   -1.6887    0.5553   -1.4034 O   0  0  0  0  0  0  0  0  0  0  0  0
    0.1759   -1.0574    2.1006 H   0  0  0  0  0  0  0  0  0  0  0  0
   -0.4274    0.7109    1.1238 H   0  0  0  0  0  0  0  0  0  0  0  0
    1.0408    1.6014   -0.7013 H   0  0  0  0  0  0  0  0  0  0  0  0
    3.3194    0.7431   -0.1075 H   0  0  0  0  0  0  0  0  0  0  0  0
    2.6156   -0.7981    0.6869 H   0  0  0  0  0  0  0  0  0  0  0  0
   -1.1317   -1.4118   -0.9824 H   0  0  0  0  0  0  0  0  0  0  0  0
   -3.3435   -0.4055   -0.3835 H   0  0  0  0  0  0  0  0  0  0  0  0
   -2.5364    1.0491    0.4770 H   0  0  0  0  0  0  0  0  0  0  0  0
  1  2  1  0
  2  3  1  0
  3  4  1  0
  4  5  1  0
  2  6  1  0
  6  7  1  0
  7  8  1  0
  5  3  1  0
  8  6  1  0
  1  9  1  0
  2 10  1  0
  3 11  1  0
  4 12  1  0
  4 13  1  0
  6 14  1  0
  7 15  1  0
  7 16  1  0
M  END
