
     RDKit          3D

 23 24  0  0  0  0  0  0  0  0999 V2000
    1.2078   -2.2283   -0.0466 O   0  0  0  0  0  0  0  0  0  0  0  0
    0.5735   -0.9906    0.1090 C   0  0  0  0  0  0  0  0  0  0  0  0
   -0.5680   -0.9220   -0.8981 C   0  0  0  0  0  0  0  0  0  0  0  0
   -1.3114    0.3729   -0.8085 C   0  0  0  0  0  0  0  0  0  0  0  0
   -1.9924    0.7984    0.4370 C   0  0  0  0  0  0  0  0  0  0  0  0
   -2.8357    0.2204   -0.6931 C   0  0  0  0  0  0  0  0  0  0  0  0
    1.5236    0.1333   -0.1871 C   0  0  0  0  0  0  0  0  0  0  0  0
    2.7595    0.2710    0.6213 C   0  0  0  0  0  0  0  0  0  0  0  0
    1.6604    1.3058    0.6862 C   0  0  0  0  0  0  0  0  0  0  0  0
    0.6617   -2.8503   -0.5894 H   0  0  0  0  0  0  0  0  0  0  0  0
    0.1190   -0.9500    1.1021 H   0  0  0  0  0  0  0  0  0  0  0  0
   -1.2577   -1.7972   -0.7666 H   0  0  0  0  0  0  0  0  0  0  0  0
   -0.1840   -1.0223   -1.9417 H   0  0  0  0  0  0  0  0  0  0  0  0
   -0.9322    1.1762   -1.4809 H   0  0  0  0  0  0  0  0  0  0  0  0
   -2.0930    1.8933    0.5981 H   0  0  0  0  0  0  0  0  0  0  0  0
   -1.9222    0.2286    1.3762 H   0  0  0  0  0  0  0  0  0  0  0  0
   -3.4162    0.9160   -1.3105 H   0  0  0  0  0  0  0  0  0  0  0  0
   -3.2277   -0.7968   -0.4893 H   0  0  0  0  0  0  0  0  0  0  0  0
    1.6146    0.3389   -1.2933 H   0  0  0  0  0  0  0  0  0  0  0  0
    3.6907    0.4940    0.0665 H   0  0  0  0  0  0  0  0  0  0  0  0
    2.9000   -0.2970    1.5533 H   0  0  0  0  0  0  0  0  0  0  0  0
    1.0738    1.4212    1.6147 H   0  0  0  0  0  0  0  0  0  0  0  0
    1.9558    2.2845    0.2173 H   0  0  0  0  0  0  0  0  0  0  0  0
  1  2  1  0
  2  3  1  0
  3  4  1  0
  4  5  1  0
  5  6  1  0
  2  7  1  0
  7  8  1  0
  8  9  1  0
  6  4  1  0
  9  7  1  0
  1 10  1  0
  2 11  1  0
  3 12  1  0
  3 13  1  0
  4 14  1  0
  5 15  1  0
  5 16  1  0
  6 17  1  0
  6 18  1  0
  7 19  1  0
  8 20  1  0
  8 21  1  0
  9 22  1  0
  9 23  1  0
M  END
