
     RDKit          3D

 19 20  0  0  0  0  0  0  0  0999 V2000
   -1.5095   -1.1641   -1.2634 O   0  0  0  0  0  0  0  0  0  0  0  0
   -1.1357   -0.2616   -0.2834 C   0  0  0  0  0  0  0  0  0  0  0  0
    0.3165   -0.2696    0.0174 C   0  0  0  0  0  0  0  0  0  0  0  0
    1.2060    0.3479   -0.7846 C   0  0  0  0  0  0  0  0  0  0  0  0
    2.5476    0.1437   -0.1949 C   0  0  0  0  0  0  0  0  0  0  0  0
    2.3540   -1.0210    0.5526 O   0  0  0  0  0  0  0  0  0  0  0  0
    1.0865   -0.8643    1.1127 C   0  0  0  0  0  0  0  0  0  0  0  0
   -2.1330    0.3032    0.6214 C   0  0  0  0  0  0  0  0  0  0  0  0
   -1.6866    1.1552   -0.5039 C   0  0  0  0  0  0  0  0  0  0  0  0
   -1.5827   -2.0888   -0.9657 H   0  0  0  0  0  0  0  0  0  0  0  0
    0.9972    0.8975   -1.6970 H   0  0  0  0  0  0  0  0  0  0  0  0
    3.3095    0.0202   -0.9839 H   0  0  0  0  0  0  0  0  0  0  0  0
    2.7692    1.0208    0.4378 H   0  0  0  0  0  0  0  0  0  0  0  0
    1.2046   -0.1977    1.9966 H   0  0  0  0  0  0  0  0  0  0  0  0
    0.7364   -1.8672    1.4262 H   0  0  0  0  0  0  0  0  0  0  0  0
   -3.1792   -0.1012    0.5019 H   0  0  0  0  0  0  0  0  0  0  0  0
   -1.9198    0.6089    1.6543 H   0  0  0  0  0  0  0  0  0  0  0  0
   -1.0551    2.0112   -0.2502 H   0  0  0  0  0  0  0  0  0  0  0  0
   -2.3259    1.3268   -1.3940 H   0  0  0  0  0  0  0  0  0  0  0  0
  1  2  1  0
  2  3  1  0
  3  4  2  0
  4  5  1  0
  5  6  1  0
  6  7  1  0
  2  8  1  0
  8  9  1  0
  9  2  1  0
  7  3  1  0
  1 10  1  0
  4 11  1  0
  5 12  1  0
  5 13  1  0
  7 14  1  0
  7 15  1  0
  8 16  1  0
  8 17  1  0
  9 18  1  0
  9 19  1  0
M  END
