
     RDKit          3D

 19 21  0  0  0  0  0  0  0  0999 V2000
   -1.5195   -1.3958   -0.9227 O   0  0  0  0  0  0  0  0  0  0  0  0
   -0.9336   -0.3111   -0.2613 C   0  0  0  0  0  0  0  0  0  0  0  0
    0.4269   -0.3109   -0.0443 C   0  0  0  0  0  0  0  0  0  0  0  0
    1.2430    0.7063    0.6762 C   0  0  0  0  0  0  0  0  0  0  0  0
    2.1555   -0.4151    0.2951 C   0  0  0  0  0  0  0  0  0  0  0  0
    1.5127   -0.4120   -1.0511 C   0  0  0  0  0  0  0  0  0  0  0  0
    1.1361   -1.2738    0.6927 O   0  0  0  0  0  0  0  0  0  0  0  0
   -1.7076    0.9692   -0.4404 C   0  0  0  0  0  0  0  0  0  0  0  0
   -1.8495    0.2771    0.8405 C   0  0  0  0  0  0  0  0  0  0  0  0
   -1.4958   -2.1489   -0.2625 H   0  0  0  0  0  0  0  0  0  0  0  0
    1.4431    1.6590    0.1352 H   0  0  0  0  0  0  0  0  0  0  0  0
    0.9807    0.8095    1.7304 H   0  0  0  0  0  0  0  0  0  0  0  0
    3.1369   -0.5081    0.5115 H   0  0  0  0  0  0  0  0  0  0  0  0
    1.5988   -1.4244   -1.5186 H   0  0  0  0  0  0  0  0  0  0  0  0
    1.6950    0.4373   -1.7077 H   0  0  0  0  0  0  0  0  0  0  0  0
   -1.1724    1.9442   -0.4363 H   0  0  0  0  0  0  0  0  0  0  0  0
   -2.6012    0.9883   -1.0975 H   0  0  0  0  0  0  0  0  0  0  0  0
   -1.3161    0.7102    1.7307 H   0  0  0  0  0  0  0  0  0  0  0  0
   -2.7331   -0.3010    1.1301 H   0  0  0  0  0  0  0  0  0  0  0  0
  1  2  1  0
  2  3  1  0
  3  4  1  0
  4  5  1  0
  5  6  1  0
  5  7  1  0
  2  8  1  0
  8  9  1  0
  9  2  1  0
  6  3  1  0
  7  3  1  0
  1 10  1  0
  4 11  1  0
  4 12  1  0
  5 13  1  0
  6 14  1  0
  6 15  1  0
  8 16  1  0
  8 17  1  0
  9 18  1  0
  9 19  1  0
M  END
