
     RDKit          3D

 18 19  0  0  0  0  0  0  0  0999 V2000
   -1.5541    0.3815    1.6738 O   0  0  0  0  0  0  0  0  0  0  0  0
   -0.9695    0.1814    0.4230 C   0  0  0  0  0  0  0  0  0  0  0  0
    0.5089    0.4495    0.4014 C   0  0  0  0  0  0  0  0  0  0  0  0
    1.3870   -0.6420    0.9460 C   0  0  0  0  0  0  0  0  0  0  0  0
    2.3107    0.0083   -0.0935 C   0  0  0  0  0  0  0  0  0  0  0  0
    1.1285    0.2600   -0.8324 O   0  0  0  0  0  0  0  0  0  0  0  0
   -1.5020   -0.9027   -0.4213 C   0  0  0  0  0  0  0  0  0  0  0  0
   -1.8170    0.5375   -0.7332 C   0  0  0  0  0  0  0  0  0  0  0  0
   -1.4414    1.3530    1.8818 H   0  0  0  0  0  0  0  0  0  0  0  0
    0.8234    1.4325    0.8211 H   0  0  0  0  0  0  0  0  0  0  0  0
    1.7181   -0.5375    1.9822 H   0  0  0  0  0  0  0  0  0  0  0  0
    1.1504   -1.6569    0.5909 H   0  0  0  0  0  0  0  0  0  0  0  0
    3.0092   -0.6793   -0.5768 H   0  0  0  0  0  0  0  0  0  0  0  0
    2.7365    0.9504    0.3076 H   0  0  0  0  0  0  0  0  0  0  0  0
   -0.9038   -1.4048   -1.1992 H   0  0  0  0  0  0  0  0  0  0  0  0
   -2.2837   -1.5490    0.0139 H   0  0  0  0  0  0  0  0  0  0  0  0
   -2.8881    0.8121   -0.5499 H   0  0  0  0  0  0  0  0  0  0  0  0
   -1.4133    1.0061   -1.6450 H   0  0  0  0  0  0  0  0  0  0  0  0
  1  2  1  0
  2  3  1  0
  3  4  1  0
  4  5  1  0
  5  6  1  0
  2  7  1  0
  7  8  1  0
  8  2  1  0
  6  3  1  0
  1  9  1  0
  3 10  1  0
  4 11  1  0
  4 12  1  0
  5 13  1  0
  5 14  1  0
  7 15  1  0
  7 16  1  0
  8 17  1  0
  8 18  1  0
M  END
