
     RDKit          3D

 21 23  0  0  0  0  0  0  0  0999 V2000
    0.9354   -0.8311   -1.6558 O   0  0  0  0  0  0  0  0  0  0  0  0
    0.9794    0.0131   -0.5507 C   0  0  0  0  0  0  0  0  0  0  0  0
   -0.3257    0.1918    0.1474 C   0  0  0  0  0  0  0  0  0  0  0  0
   -0.9367   -1.0521    0.6888 C   0  0  0  0  0  0  0  0  0  0  0  0
   -2.3097   -0.6010    0.2508 C   0  0  0  0  0  0  0  0  0  0  0  0
   -1.5916    0.4816   -0.5521 C   0  0  0  0  0  0  0  0  0  0  0  0
   -0.9467    1.5210    0.2644 C   0  0  0  0  0  0  0  0  0  0  0  0
    2.1424   -0.2965    0.4156 C   0  0  0  0  0  0  0  0  0  0  0  0
    2.1065    0.9411   -0.3975 C   0  0  0  0  0  0  0  0  0  0  0  0
    1.0192   -1.7577   -1.2987 H   0  0  0  0  0  0  0  0  0  0  0  0
   -0.6351   -1.9504    0.0826 H   0  0  0  0  0  0  0  0  0  0  0  0
   -0.8090   -1.2781    1.7427 H   0  0  0  0  0  0  0  0  0  0  0  0
   -2.8966   -1.3055   -0.3366 H   0  0  0  0  0  0  0  0  0  0  0  0
   -2.8473   -0.1668    1.1391 H   0  0  0  0  0  0  0  0  0  0  0  0
   -1.5982    0.4494   -1.6339 H   0  0  0  0  0  0  0  0  0  0  0  0
   -1.4776    1.7633    1.2263 H   0  0  0  0  0  0  0  0  0  0  0  0
   -0.4641    2.3396   -0.2799 H   0  0  0  0  0  0  0  0  0  0  0  0
    1.9762   -0.1783    1.4859 H   0  0  0  0  0  0  0  0  0  0  0  0
    2.8034   -1.1496    0.1581 H   0  0  0  0  0  0  0  0  0  0  0  0
    2.8418    0.9581   -1.2522 H   0  0  0  0  0  0  0  0  0  0  0  0
    2.0341    1.9082    0.1132 H   0  0  0  0  0  0  0  0  0  0  0  0
  1  2  1  0
  2  3  1  0
  3  4  1  0
  4  5  1  0
  5  6  1  0
  6  7  1  0
  2  8  1  0
  8  9  1  0
  9  2  1  0
  6  3  1  0
  7  3  1  0
  1 10  1  0
  4 11  1  0
  4 12  1  0
  5 13  1  0
  5 14  1  0
  6 15  1  0
  7 16  1  0
  7 17  1  0
  8 18  1  0
  8 19  1  0
  9 20  1  0
  9 21  1  0
M  END
