
     RDKit          3D

 21 22  0  0  0  0  0  0  0  0999 V2000
   -0.0057   -0.9800    1.7623 O   0  0  0  0  0  0  0  0  0  0  0  0
   -0.3182   -0.1163    0.7361 C   0  0  0  0  0  0  0  0  0  0  0  0
    0.8592    0.1469   -0.1478 C   0  0  0  0  0  0  0  0  0  0  0  0
    2.0621    0.7657    0.5170 C   0  0  0  0  0  0  0  0  0  0  0  0
    2.8468    0.0285   -0.4016 O   0  0  0  0  0  0  0  0  0  0  0  0
    1.8503   -0.9655   -0.2847 C   0  0  0  0  0  0  0  0  0  0  0  0
   -1.4924   -0.5999   -0.0887 C   0  0  0  0  0  0  0  0  0  0  0  0
   -2.3311    0.5639    0.3885 C   0  0  0  0  0  0  0  0  0  0  0  0
   -1.1290    1.0462    1.1681 C   0  0  0  0  0  0  0  0  0  0  0  0
   -0.0616   -1.9277    1.5269 H   0  0  0  0  0  0  0  0  0  0  0  0
    0.6538    0.6103   -1.1258 H   0  0  0  0  0  0  0  0  0  0  0  0
    2.1784    1.8430    0.3766 H   0  0  0  0  0  0  0  0  0  0  0  0
    2.2602    0.3950    1.5319 H   0  0  0  0  0  0  0  0  0  0  0  0
    2.0585   -1.5290    0.6590 H   0  0  0  0  0  0  0  0  0  0  0  0
    1.6995   -1.5785   -1.1769 H   0  0  0  0  0  0  0  0  0  0  0  0
   -1.3212   -0.5910   -1.1937 H   0  0  0  0  0  0  0  0  0  0  0  0
   -1.8758   -1.6061    0.1849 H   0  0  0  0  0  0  0  0  0  0  0  0
   -2.6397    1.2138   -0.4478 H   0  0  0  0  0  0  0  0  0  0  0  0
   -3.1714    0.1866    0.9931 H   0  0  0  0  0  0  0  0  0  0  0  0
   -0.7724    2.0573    0.8904 H   0  0  0  0  0  0  0  0  0  0  0  0
   -1.3505    1.0367    2.2580 H   0  0  0  0  0  0  0  0  0  0  0  0
  1  2  1  0
  2  3  1  0
  3  4  1  0
  4  5  1  0
  5  6  1  0
  2  7  1  0
  7  8  1  0
  8  9  1  0
  9  2  1  0
  6  3  1  0
  1 10  1  0
  3 11  1  0
  4 12  1  0
  4 13  1  0
  6 14  1  0
  6 15  1  0
  7 16  1  0
  7 17  1  0
  8 18  1  0
  8 19  1  0
  9 20  1  0
  9 21  1  0
M  END
