
     RDKit          3D

 21 22  0  0  0  0  0  0  0  0999 V2000
   -1.6492    1.7331    0.6538 O   0  0  0  0  0  0  0  0  0  0  0  0
   -1.1387    0.4819    0.2372 C   0  0  0  0  0  0  0  0  0  0  0  0
    0.2939    0.2271    0.4971 C   0  0  0  0  0  0  0  0  0  0  0  0
    0.7936   -1.1247    0.0373 C   0  0  0  0  0  0  0  0  0  0  0  0
    2.2656   -0.8952    0.0938 C   0  0  0  0  0  0  0  0  0  0  0  0
    2.5282    0.3921   -0.0909 C   0  0  0  0  0  0  0  0  0  0  0  0
    1.2456    1.1256   -0.2859 C   0  0  0  0  0  0  0  0  0  0  0  0
   -1.9040   -0.2283   -0.8357 C   0  0  0  0  0  0  0  0  0  0  0  0
   -2.0443   -0.7257    0.5526 C   0  0  0  0  0  0  0  0  0  0  0  0
   -1.8032    2.2925   -0.1698 H   0  0  0  0  0  0  0  0  0  0  0  0
    0.5387    0.2854    1.5874 H   0  0  0  0  0  0  0  0  0  0  0  0
    0.4673   -1.9306    0.7220 H   0  0  0  0  0  0  0  0  0  0  0  0
    0.4605   -1.2803   -0.9991 H   0  0  0  0  0  0  0  0  0  0  0  0
    2.9877   -1.6796    0.2616 H   0  0  0  0  0  0  0  0  0  0  0  0
    3.4996    0.8666   -0.1041 H   0  0  0  0  0  0  0  0  0  0  0  0
    0.9127    1.0473   -1.3578 H   0  0  0  0  0  0  0  0  0  0  0  0
    1.2639    2.1511    0.0852 H   0  0  0  0  0  0  0  0  0  0  0  0
   -1.4249   -0.8511   -1.5915 H   0  0  0  0  0  0  0  0  0  0  0  0
   -2.7960    0.3108   -1.2220 H   0  0  0  0  0  0  0  0  0  0  0  0
   -2.9354   -0.5009    1.1704 H   0  0  0  0  0  0  0  0  0  0  0  0
   -1.5617   -1.6971    0.7586 H   0  0  0  0  0  0  0  0  0  0  0  0
  1  2  1  0
  2  3  1  0
  3  4  1  0
  4  5  1  0
  5  6  2  0
  6  7  1  0
  2  8  1  0
  8  9  1  0
  9  2  1  0
  7  3  1  0
  1 10  1  0
  3 11  1  0
  4 12  1  0
  4 13  1  0
  5 14  1  0
  6 15  1  0
  7 16  1  0
  7 17  1  0
  8 18  1  0
  8 19  1  0
  9 20  1  0
  9 21  1  0
M  END
