
     RDKit          3D

 19 20  0  0  0  0  0  0  0  0999 V2000
   -0.1686   -1.9777    0.8446 O   0  0  0  0  0  0  0  0  0  0  0  0
   -0.0856   -0.7285    0.2872 C   0  0  0  0  0  0  0  0  0  0  0  0
    1.2569   -0.4844   -0.3102 C   0  0  0  0  0  0  0  0  0  0  0  0
    2.2076    0.4153    0.1802 C   0  0  0  0  0  0  0  0  0  0  0  0
    1.2915    0.8778   -0.8972 O   0  0  0  0  0  0  0  0  0  0  0  0
   -0.5422    0.3642    1.2168 C   0  0  0  0  0  0  0  0  0  0  0  0
   -1.1030    1.3759    0.2779 C   0  0  0  0  0  0  0  0  0  0  0  0
   -1.4266    0.8147   -0.8656 C   0  0  0  0  0  0  0  0  0  0  0  0
   -1.1172   -0.6288   -0.8101 C   0  0  0  0  0  0  0  0  0  0  0  0
   -0.2877   -2.6950    0.1616 H   0  0  0  0  0  0  0  0  0  0  0  0
    1.5364   -1.2337   -1.0925 H   0  0  0  0  0  0  0  0  0  0  0  0
    3.2361    0.4470   -0.2561 H   0  0  0  0  0  0  0  0  0  0  0  0
    2.0970    1.0588    1.0528 H   0  0  0  0  0  0  0  0  0  0  0  0
    0.2402    0.7840    1.8477 H   0  0  0  0  0  0  0  0  0  0  0  0
   -1.3439   -0.0352    1.8721 H   0  0  0  0  0  0  0  0  0  0  0  0
   -1.2072    2.4351    0.5615 H   0  0  0  0  0  0  0  0  0  0  0  0
   -1.8576    1.3471   -1.7176 H   0  0  0  0  0  0  0  0  0  0  0  0
   -0.7000   -0.9283   -1.7987 H   0  0  0  0  0  0  0  0  0  0  0  0
   -2.0261   -1.2081   -0.5543 H   0  0  0  0  0  0  0  0  0  0  0  0
  1  2  1  0
  2  3  1  0
  3  4  1  0
  4  5  1  0
  2  6  1  0
  6  7  1  0
  7  8  2  0
  8  9  1  0
  9  2  1  0
  5  3  1  0
  1 10  1  0
  3 11  1  0
  4 12  1  0
  4 13  1  0
  6 14  1  0
  6 15  1  0
  7 16  1  0
  8 17  1  0
  9 18  1  0
  9 19  1  0
M  END
