
     RDKit          3D

 21 22  0  0  0  0  0  0  0  0999 V2000
   -1.0418   -1.7306   -0.3511 O   0  0  0  0  0  0  0  0  0  0  0  0
   -1.1064   -0.3709   -0.3015 C   0  0  0  0  0  0  0  0  0  0  0  0
    0.1749    0.3889   -0.4461 C   0  0  0  0  0  0  0  0  0  0  0  0
    1.1894    0.0735    0.6052 C   0  0  0  0  0  0  0  0  0  0  0  0
    2.5097    0.8050    0.5215 C   0  0  0  0  0  0  0  0  0  0  0  0
    2.4780   -0.6186    0.1451 C   0  0  0  0  0  0  0  0  0  0  0  0
   -2.0790    0.1212    0.7172 C   0  0  0  0  0  0  0  0  0  0  0  0
   -3.1026   -0.0885   -0.2191 O   0  0  0  0  0  0  0  0  0  0  0  0
   -2.1665    0.2119   -1.2134 C   0  0  0  0  0  0  0  0  0  0  0  0
   -0.9361   -2.1846    0.5084 H   0  0  0  0  0  0  0  0  0  0  0  0
    0.6070    0.1270   -1.4325 H   0  0  0  0  0  0  0  0  0  0  0  0
    0.0073    1.4788   -0.4629 H   0  0  0  0  0  0  0  0  0  0  0  0
    0.8582   -0.1519    1.6381 H   0  0  0  0  0  0  0  0  0  0  0  0
    2.6624    1.5301   -0.2860 H   0  0  0  0  0  0  0  0  0  0  0  0
    3.0303    1.0778    1.4736 H   0  0  0  0  0  0  0  0  0  0  0  0
    2.9520   -1.3298    0.8567 H   0  0  0  0  0  0  0  0  0  0  0  0
    2.5300   -0.9417   -0.9067 H   0  0  0  0  0  0  0  0  0  0  0  0
   -2.2526   -0.5776    1.5797 H   0  0  0  0  0  0  0  0  0  0  0  0
   -1.9663    1.1801    1.0096 H   0  0  0  0  0  0  0  0  0  0  0  0
   -2.3118   -0.3094   -2.1702 H   0  0  0  0  0  0  0  0  0  0  0  0
   -2.0361    1.3094   -1.2656 H   0  0  0  0  0  0  0  0  0  0  0  0
  1  2  1  0
  2  3  1  0
  3  4  1  0
  4  5  1  0
  5  6  1  0
  2  7  1  0
  7  8  1  0
  8  9  1  0
  9  2  1  0
  6  4  1  0
  1 10  1  0
  3 11  1  0
  3 12  1  0
  4 13  1  0
  5 14  1  0
  5 15  1  0
  6 16  1  0
  6 17  1  0
  7 18  1  0
  7 19  1  0
  9 20  1  0
  9 21  1  0
M  END
