
     RDKit          3D

 19 21  0  0  0  0  0  0  0  0999 V2000
    0.7446    1.5043   -0.2583 O   0  0  0  0  0  0  0  0  0  0  0  0
    0.1835    0.2217   -0.0874 C   0  0  0  0  0  0  0  0  0  0  0  0
    1.1910   -0.8462    0.0874 C   0  0  0  0  0  0  0  0  0  0  0  0
    2.6449   -0.3790   -0.0612 C   0  0  0  0  0  0  0  0  0  0  0  0
    2.0956   -0.8636    1.1125 O   0  0  0  0  0  0  0  0  0  0  0  0
   -0.9848    0.2661    0.8577 C   0  0  0  0  0  0  0  0  0  0  0  0
   -1.4858   -0.9483    0.1509 C   0  0  0  0  0  0  0  0  0  0  0  0
   -0.9916   -0.0721   -0.9629 C   0  0  0  0  0  0  0  0  0  0  0  0
   -1.6788    1.0536   -0.2279 C   0  0  0  0  0  0  0  0  0  0  0  0
    0.8796    1.8746    0.6527 H   0  0  0  0  0  0  0  0  0  0  0  0
    0.9323   -1.8334   -0.3346 H   0  0  0  0  0  0  0  0  0  0  0  0
    2.8241    0.7144   -0.0184 H   0  0  0  0  0  0  0  0  0  0  0  0
    3.2273   -1.0105   -0.7279 H   0  0  0  0  0  0  0  0  0  0  0  0
   -0.9748    0.4690    1.8349 H   0  0  0  0  0  0  0  0  0  0  0  0
   -2.6034   -0.9945    0.2113 H   0  0  0  0  0  0  0  0  0  0  0  0
   -0.9764   -1.8903    0.3403 H   0  0  0  0  0  0  0  0  0  0  0  0
   -1.0127   -0.2511   -1.9424 H   0  0  0  0  0  0  0  0  0  0  0  0
   -1.2499    2.0468   -0.3441 H   0  0  0  0  0  0  0  0  0  0  0  0
   -2.7647    0.9385   -0.2828 H   0  0  0  0  0  0  0  0  0  0  0  0
  1  2  1  0
  2  3  1  0
  3  4  1  0
  4  5  1  0
  2  6  1  0
  6  7  1  0
  7  8  1  0
  8  9  1  0
  8  2  1  0
  5  3  1  0
  9  6  1  0
  1 10  1  0
  3 11  1  0
  4 12  1  0
  4 13  1  0
  6 14  1  0
  7 15  1  0
  7 16  1  0
  8 17  1  0
  9 18  1  0
  9 19  1  0
M  END
