
     RDKit          3D

 19 21  0  0  0  0  0  0  0  0999 V2000
   -1.0948    1.5127    0.7505 O   0  0  0  0  0  0  0  0  0  0  0  0
   -1.0355    0.2724    0.1020 C   0  0  0  0  0  0  0  0  0  0  0  0
    0.3302   -0.1307   -0.3348 C   0  0  0  0  0  0  0  0  0  0  0  0
    1.4451   -0.2964    0.6269 C   0  0  0  0  0  0  0  0  0  0  0  0
    2.7836   -0.5764   -0.0116 C   0  0  0  0  0  0  0  0  0  0  0  0
    2.6853    0.6355   -0.6724 O   0  0  0  0  0  0  0  0  0  0  0  0
    1.3834    0.9371   -0.3220 C   0  0  0  0  0  0  0  0  0  0  0  0
   -2.0783   -0.7432    0.4160 C   0  0  0  0  0  0  0  0  0  0  0  0
   -2.1331   -0.0241   -0.9205 C   0  0  0  0  0  0  0  0  0  0  0  0
   -2.0251    1.6227    1.0446 H   0  0  0  0  0  0  0  0  0  0  0  0
    0.3790   -0.8778   -1.1793 H   0  0  0  0  0  0  0  0  0  0  0  0
    1.3732   -0.0402    1.6823 H   0  0  0  0  0  0  0  0  0  0  0  0
    3.5745   -0.6635    0.7396 H   0  0  0  0  0  0  0  0  0  0  0  0
    2.6981   -1.4137   -0.7388 H   0  0  0  0  0  0  0  0  0  0  0  0
    1.1500    1.9105    0.1571 H   0  0  0  0  0  0  0  0  0  0  0  0
   -1.7837   -1.8188    0.4297 H   0  0  0  0  0  0  0  0  0  0  0  0
   -2.8766   -0.4454    1.1226 H   0  0  0  0  0  0  0  0  0  0  0  0
   -2.8967    0.7506   -1.0769 H   0  0  0  0  0  0  0  0  0  0  0  0
   -1.8784   -0.6113   -1.8149 H   0  0  0  0  0  0  0  0  0  0  0  0
  1  2  1  0
  2  3  1  0
  3  4  1  0
  4  5  1  0
  5  6  1  0
  6  7  1  0
  2  8  1  0
  8  9  1  0
  9  2  1  0
  7  3  1  0
  7  4  1  0
  1 10  1  0
  3 11  1  0
  4 12  1  0
  5 13  1  0
  5 14  1  0
  7 15  1  0
  8 16  1  0
  8 17  1  0
  9 18  1  0
  9 19  1  0
M  END
