
     RDKit          3D

 19 20  0  0  0  0  0  0  0  0999 V2000
   -1.4331    0.5724   -1.4128 O   0  0  0  0  0  0  0  0  0  0  0  0
   -0.7696    0.0281   -0.2953 C   0  0  0  0  0  0  0  0  0  0  0  0
    0.7155   -0.0683   -0.4987 C   0  0  0  0  0  0  0  0  0  0  0  0
    1.0973   -0.8548   -1.5612 O   0  0  0  0  0  0  0  0  0  0  0  0
    1.3907    1.2870   -0.4046 C   0  0  0  0  0  0  0  0  0  0  0  0
    1.3826    1.1102    0.9970 O   0  0  0  0  0  0  0  0  0  0  0  0
    1.5390   -0.2562    0.7469 C   0  0  0  0  0  0  0  0  0  0  0  0
   -1.5288   -0.9768    0.4572 C   0  0  0  0  0  0  0  0  0  0  0  0
   -1.3513    0.4242    1.0049 C   0  0  0  0  0  0  0  0  0  0  0  0
   -1.8532   -0.1498   -1.9498 H   0  0  0  0  0  0  0  0  0  0  0  0
    0.4318   -1.5637   -1.6812 H   0  0  0  0  0  0  0  0  0  0  0  0
    0.7717    2.1287   -0.7542 H   0  0  0  0  0  0  0  0  0  0  0  0
    2.4462    1.2931   -0.7465 H   0  0  0  0  0  0  0  0  0  0  0  0
    2.5845   -0.5392    0.4487 H   0  0  0  0  0  0  0  0  0  0  0  0
    1.1416   -0.9369    1.4967 H   0  0  0  0  0  0  0  0  0  0  0  0
   -1.0005   -1.7648    1.0631 H   0  0  0  0  0  0  0  0  0  0  0  0
   -2.5388   -1.3140    0.1469 H   0  0  0  0  0  0  0  0  0  0  0  0
   -0.7228    0.5871    1.8987 H   0  0  0  0  0  0  0  0  0  0  0  0
   -2.3029    0.9937    1.0443 H   0  0  0  0  0  0  0  0  0  0  0  0
  1  2  1  0
  2  3  1  0
  3  4  1  0
  3  5  1  0
  5  6  1  0
  6  7  1  0
  2  8  1  0
  8  9  1  0
  9  2  1  0
  7  3  1  0
  1 10  1  0
  4 11  1  0
  5 12  1  0
  5 13  1  0
  7 14  1  0
  7 15  1  0
  8 16  1  0
  8 17  1  0
  9 18  1  0
  9 19  1  0
M  END
