
     RDKit          3D

 19 21  0  0  0  0  0  0  0  0999 V2000
    0.3320   -1.4654   -1.3452 O   0  0  0  0  0  0  0  0  0  0  0  0
    0.2275   -0.2513   -0.6227 C   0  0  0  0  0  0  0  0  0  0  0  0
   -1.2361    0.1958   -0.6014 C   0  0  0  0  0  0  0  0  0  0  0  0
   -2.2415   -0.7581    0.0404 C   0  0  0  0  0  0  0  0  0  0  0  0
   -1.8993    0.6037    0.6201 C   0  0  0  0  0  0  0  0  0  0  0  0
    1.0834   -0.1813    0.5381 C   0  0  0  0  0  0  0  0  0  0  0  0
    2.5094    0.3947    0.5490 C   0  0  0  0  0  0  0  0  0  0  0  0
    1.7729    1.5749    0.2634 O   0  0  0  0  0  0  0  0  0  0  0  0
    1.2230    0.7560   -0.7316 C   0  0  0  0  0  0  0  0  0  0  0  0
    0.2830   -2.1886   -0.6510 H   0  0  0  0  0  0  0  0  0  0  0  0
   -1.5250    0.6881   -1.5537 H   0  0  0  0  0  0  0  0  0  0  0  0
   -3.1724   -0.8792   -0.5442 H   0  0  0  0  0  0  0  0  0  0  0  0
   -1.8818   -1.6204    0.6009 H   0  0  0  0  0  0  0  0  0  0  0  0
   -1.4645    0.6120    1.6237 H   0  0  0  0  0  0  0  0  0  0  0  0
   -2.7493    1.3305    0.5173 H   0  0  0  0  0  0  0  0  0  0  0  0
    0.5428    0.3161    1.4060 H   0  0  0  0  0  0  0  0  0  0  0  0
    3.1676    0.0378   -0.2339 H   0  0  0  0  0  0  0  0  0  0  0  0
    2.9478    0.3591    1.5460 H   0  0  0  0  0  0  0  0  0  0  0  0
    2.0804    0.4756   -1.4213 H   0  0  0  0  0  0  0  0  0  0  0  0
  1  2  1  0
  2  3  1  0
  3  4  1  0
  4  5  1  0
  2  6  1  0
  6  7  1  0
  7  8  1  0
  8  9  1  0
  9  2  1  0
  5  3  1  0
  9  6  1  0
  1 10  1  0
  3 11  1  0
  4 12  1  0
  4 13  1  0
  5 14  1  0
  5 15  1  0
  6 16  1  0
  7 17  1  0
  7 18  1  0
  9 19  1  0
M  END
