
     RDKit          3D

 21 22  0  0  0  0  0  0  0  0999 V2000
    1.3948   -0.0764   -1.9586 O   0  0  0  0  0  0  0  0  0  0  0  0
    1.1044    0.0024   -0.5903 C   0  0  0  0  0  0  0  0  0  0  0  0
   -0.1416   -0.7333   -0.1945 C   0  0  0  0  0  0  0  0  0  0  0  0
   -0.4416   -0.6474    1.2413 C   0  0  0  0  0  0  0  0  0  0  0  0
   -1.6067   -0.0661    1.4002 C   0  0  0  0  0  0  0  0  0  0  0  0
   -2.2291    0.3074    0.1084 C   0  0  0  0  0  0  0  0  0  0  0  0
   -1.3600   -0.3333   -0.9407 C   0  0  0  0  0  0  0  0  0  0  0  0
    2.2632   -0.2217    0.3772 C   0  0  0  0  0  0  0  0  0  0  0  0
    1.6550    1.1192    0.1706 C   0  0  0  0  0  0  0  0  0  0  0  0
    1.1651    0.7637   -2.4364 H   0  0  0  0  0  0  0  0  0  0  0  0
    0.0498   -1.8230   -0.4247 H   0  0  0  0  0  0  0  0  0  0  0  0
    0.1900   -1.0035    2.0466 H   0  0  0  0  0  0  0  0  0  0  0  0
   -2.0956    0.1371    2.3595 H   0  0  0  0  0  0  0  0  0  0  0  0
   -2.3108    1.3937   -0.0007 H   0  0  0  0  0  0  0  0  0  0  0  0
   -3.2605   -0.1144    0.1122 H   0  0  0  0  0  0  0  0  0  0  0  0
   -1.9312   -1.2153   -1.3388 H   0  0  0  0  0  0  0  0  0  0  0  0
   -1.1777    0.3281   -1.8073 H   0  0  0  0  0  0  0  0  0  0  0  0
    3.2077   -0.5168   -0.1134 H   0  0  0  0  0  0  0  0  0  0  0  0
    2.0801   -0.7378    1.3263 H   0  0  0  0  0  0  0  0  0  0  0  0
    2.2699    1.8744   -0.3967 H   0  0  0  0  0  0  0  0  0  0  0  0
    1.1746    1.5631    1.0599 H   0  0  0  0  0  0  0  0  0  0  0  0
  1  2  1  0
  2  3  1  0
  3  4  1  0
  4  5  2  0
  5  6  1  0
  6  7  1  0
  2  8  1  0
  8  9  1  0
  9  2  1  0
  7  3  1  0
  1 10  1  0
  3 11  1  0
  4 12  1  0
  5 13  1  0
  6 14  1  0
  6 15  1  0
  7 16  1  0
  7 17  1  0
  8 18  1  0
  8 19  1  0
  9 20  1  0
  9 21  1  0
M  END
