
     RDKit          3D

 19 20  0  0  0  0  0  0  0  0999 V2000
   -0.5372   -1.4244    1.0516 O   0  0  0  0  0  0  0  0  0  0  0  0
   -0.8513   -0.3082    0.2970 C   0  0  0  0  0  0  0  0  0  0  0  0
    0.3135    0.4277   -0.2964 C   0  0  0  0  0  0  0  0  0  0  0  0
    1.1539   -0.3974   -1.2108 C   0  0  0  0  0  0  0  0  0  0  0  0
    2.4455    0.0852   -0.9375 O   0  0  0  0  0  0  0  0  0  0  0  0
    2.4346    0.4839    0.3873 C   0  0  0  0  0  0  0  0  0  0  0  0
    1.1419    0.8671    0.7024 O   0  0  0  0  0  0  0  0  0  0  0  0
   -2.2107   -0.2109   -0.2688 C   0  0  0  0  0  0  0  0  0  0  0  0
   -1.8789    0.6284    0.9633 C   0  0  0  0  0  0  0  0  0  0  0  0
   -0.4721   -2.2557    0.5456 H   0  0  0  0  0  0  0  0  0  0  0  0
   -0.0566    1.3445   -0.8419 H   0  0  0  0  0  0  0  0  0  0  0  0
    1.0693   -1.4795   -1.0768 H   0  0  0  0  0  0  0  0  0  0  0  0
    0.9747   -0.1522   -2.2922 H   0  0  0  0  0  0  0  0  0  0  0  0
    2.7878   -0.2976    1.0604 H   0  0  0  0  0  0  0  0  0  0  0  0
    3.0755    1.4024    0.5032 H   0  0  0  0  0  0  0  0  0  0  0  0
   -2.4154    0.3622   -1.1890 H   0  0  0  0  0  0  0  0  0  0  0  0
   -2.8725   -1.0870   -0.1148 H   0  0  0  0  0  0  0  0  0  0  0  0
   -2.3232    0.3032    1.9149 H   0  0  0  0  0  0  0  0  0  0  0  0
   -1.7787    1.7082    0.8023 H   0  0  0  0  0  0  0  0  0  0  0  0
  1  2  1  0
  2  3  1  0
  3  4  1  0
  4  5  1  0
  5  6  1  0
  6  7  1  0
  2  8  1  0
  8  9  1  0
  9  2  1  0
  7  3  1  0
  1 10  1  0
  3 11  1  0
  4 12  1  0
  4 13  1  0
  6 14  1  0
  6 15  1  0
  8 16  1  0
  8 17  1  0
  9 18  1  0
  9 19  1  0
M  END
