
     RDKit          3D

 19 21  0  0  0  0  0  0  0  0999 V2000
   -1.2817    1.9311    0.1575 O   0  0  0  0  0  0  0  0  0  0  0  0
   -0.9223    0.5665    0.1269 C   0  0  0  0  0  0  0  0  0  0  0  0
    0.5311    0.3309    0.2292 C   0  0  0  0  0  0  0  0  0  0  0  0
    1.3025    0.1735   -1.0535 C   0  0  0  0  0  0  0  0  0  0  0  0
    2.3954   -0.5043   -0.2166 C   0  0  0  0  0  0  0  0  0  0  0  0
    1.3391   -0.4965    0.9027 C   0  0  0  0  0  0  0  0  0  0  0  0
    1.1461    0.7993    1.3753 O   0  0  0  0  0  0  0  0  0  0  0  0
   -1.8105   -0.2607   -0.7395 C   0  0  0  0  0  0  0  0  0  0  0  0
   -1.9077   -0.3822    0.7680 C   0  0  0  0  0  0  0  0  0  0  0  0
   -2.0194    2.0410    0.8033 H   0  0  0  0  0  0  0  0  0  0  0  0
    0.7742   -0.5541   -1.7113 H   0  0  0  0  0  0  0  0  0  0  0  0
    1.6151    1.0894   -1.5604 H   0  0  0  0  0  0  0  0  0  0  0  0
    2.6941   -1.4914   -0.5573 H   0  0  0  0  0  0  0  0  0  0  0  0
    3.2053    0.2460   -0.0548 H   0  0  0  0  0  0  0  0  0  0  0  0
    1.2726   -1.3571    1.5604 H   0  0  0  0  0  0  0  0  0  0  0  0
   -2.6874    0.1949   -1.2440 H   0  0  0  0  0  0  0  0  0  0  0  0
   -1.3346   -1.0854   -1.2987 H   0  0  0  0  0  0  0  0  0  0  0  0
   -1.5508   -1.3194    1.2185 H   0  0  0  0  0  0  0  0  0  0  0  0
   -2.7610    0.0784    1.2943 H   0  0  0  0  0  0  0  0  0  0  0  0
  1  2  1  0
  2  3  1  0
  3  4  1  0
  4  5  1  0
  5  6  1  0
  6  7  1  0
  2  8  1  0
  8  9  1  0
  9  2  1  0
  6  3  1  0
  7  3  1  0
  1 10  1  0
  4 11  1  0
  4 12  1  0
  5 13  1  0
  5 14  1  0
  6 15  1  0
  8 16  1  0
  8 17  1  0
  9 18  1  0
  9 19  1  0
M  END
