
     RDKit          3D

 21 22  0  0  0  0  0  0  0  0999 V2000
    0.0598   -1.0096    1.5974 O   0  0  0  0  0  0  0  0  0  0  0  0
    0.2238   -0.4048    0.3507 C   0  0  0  0  0  0  0  0  0  0  0  0
    1.6825   -0.4318    0.0039 C   0  0  0  0  0  0  0  0  0  0  0  0
    2.5341    0.7556    0.0616 C   0  0  0  0  0  0  0  0  0  0  0  0
    2.0991    0.1217   -1.2103 O   0  0  0  0  0  0  0  0  0  0  0  0
   -0.6571   -1.0632   -0.6619 C   0  0  0  0  0  0  0  0  0  0  0  0
   -1.8024   -0.0910   -0.9468 C   0  0  0  0  0  0  0  0  0  0  0  0
   -1.8201    0.6822    0.3740 C   0  0  0  0  0  0  0  0  0  0  0  0
   -0.3230    1.0013    0.4943 C   0  0  0  0  0  0  0  0  0  0  0  0
    0.3066   -1.9556    1.5057 H   0  0  0  0  0  0  0  0  0  0  0  0
    2.1850   -1.3977    0.2272 H   0  0  0  0  0  0  0  0  0  0  0  0
    3.6072    0.6706    0.2451 H   0  0  0  0  0  0  0  0  0  0  0  0
    2.1380    1.7849    0.0843 H   0  0  0  0  0  0  0  0  0  0  0  0
   -0.1528   -1.3104   -1.6079 H   0  0  0  0  0  0  0  0  0  0  0  0
   -1.1426   -1.9802   -0.2443 H   0  0  0  0  0  0  0  0  0  0  0  0
   -1.5052    0.6424   -1.7304 H   0  0  0  0  0  0  0  0  0  0  0  0
   -2.7439   -0.6015   -1.1442 H   0  0  0  0  0  0  0  0  0  0  0  0
   -2.1013   -0.0604    1.1498 H   0  0  0  0  0  0  0  0  0  0  0  0
   -2.4369    1.5684    0.3425 H   0  0  0  0  0  0  0  0  0  0  0  0
   -0.0525    1.6466   -0.3578 H   0  0  0  0  0  0  0  0  0  0  0  0
   -0.0980    1.4325    1.4673 H   0  0  0  0  0  0  0  0  0  0  0  0
  1  2  1  0
  2  3  1  0
  3  4  1  0
  4  5  1  0
  2  6  1  0
  6  7  1  0
  7  8  1  0
  8  9  1  0
  9  2  1  0
  5  3  1  0
  1 10  1  0
  3 11  1  0
  4 12  1  0
  4 13  1  0
  6 14  1  0
  6 15  1  0
  7 16  1  0
  7 17  1  0
  8 18  1  0
  8 19  1  0
  9 20  1  0
  9 21  1  0
M  END
