
     RDKit          3D

 20 21  0  0  0  0  0  0  0  0999 V2000
   -0.6016   -0.3290    1.5888 O   0  0  0  0  0  0  0  0  0  0  0  0
   -0.8583   -0.0472    0.2554 C   0  0  0  0  0  0  0  0  0  0  0  0
    0.3384    0.3092   -0.5970 C   0  0  0  0  0  0  0  0  0  0  0  0
    1.3653   -0.8026   -0.6433 C   0  0  0  0  0  0  0  0  0  0  0  0
    2.0668   -0.0989    0.5176 C   0  0  0  0  0  0  0  0  0  0  0  0
    1.3745    1.1565    0.0607 C   0  0  0  0  0  0  0  0  0  0  0  0
   -2.1960    0.4907   -0.0692 C   0  0  0  0  0  0  0  0  0  0  0  0
   -1.9357   -0.9276   -0.4070 C   0  0  0  0  0  0  0  0  0  0  0  0
   -1.1552    0.1652    2.2211 H   0  0  0  0  0  0  0  0  0  0  0  0
    0.0222    0.6976   -1.5802 H   0  0  0  0  0  0  0  0  0  0  0  0
    2.0024   -0.6890   -1.5478 H   0  0  0  0  0  0  0  0  0  0  0  0
    1.0033   -1.8071   -0.4271 H   0  0  0  0  0  0  0  0  0  0  0  0
    3.1788   -0.0734    0.4180 H   0  0  0  0  0  0  0  0  0  0  0  0
    1.8008   -0.4753    1.5096 H   0  0  0  0  0  0  0  0  0  0  0  0
    1.9964    1.6780   -0.7222 H   0  0  0  0  0  0  0  0  0  0  0  0
    1.0426    1.8421    0.8531 H   0  0  0  0  0  0  0  0  0  0  0  0
   -2.9181    0.6835    0.7546 H   0  0  0  0  0  0  0  0  0  0  0  0
   -2.3588    1.1726   -0.9401 H   0  0  0  0  0  0  0  0  0  0  0  0
   -2.3707   -1.7452    0.2218 H   0  0  0  0  0  0  0  0  0  0  0  0
   -1.7973   -1.2001   -1.4667 H   0  0  0  0  0  0  0  0  0  0  0  0
  1  2  1  0
  2  3  1  0
  3  4  1  0
  4  5  1  0
  5  6  1  0
  2  7  1  0
  7  8  1  0
  8  2  1  0
  6  3  1  0
  1  9  1  0
  3 10  1  0
  4 11  1  0
  4 12  1  0
  5 13  1  0
  5 14  1  0
  6 15  1  0
  6 16  1  0
  7 17  1  0
  7 18  1  0
  8 19  1  0
  8 20  1  0
M  END
