
     RDKit          3D

 23 24  0  0  0  0  0  0  0  0999 V2000
    1.7918   -1.5297    1.0304 O   0  0  0  0  0  0  0  0  0  0  0  0
    1.3621   -0.3635    0.3928 C   0  0  0  0  0  0  0  0  0  0  0  0
   -0.0041   -0.4480   -0.1869 C   0  0  0  0  0  0  0  0  0  0  0  0
   -1.0446   -0.7443    0.8883 C   0  0  0  0  0  0  0  0  0  0  0  0
   -2.3395   -0.5246    0.1168 C   0  0  0  0  0  0  0  0  0  0  0  0
   -2.0351    0.7828   -0.5893 C   0  0  0  0  0  0  0  0  0  0  0  0
   -0.5223    0.7938   -0.8040 C   0  0  0  0  0  0  0  0  0  0  0  0
    2.3999    0.2319   -0.5809 C   0  0  0  0  0  0  0  0  0  0  0  0
    2.0371    0.8889    0.7350 C   0  0  0  0  0  0  0  0  0  0  0  0
    1.5784   -2.3428    0.4968 H   0  0  0  0  0  0  0  0  0  0  0  0
   -0.0892   -1.2821   -0.9334 H   0  0  0  0  0  0  0  0  0  0  0  0
   -0.9256    0.0174    1.6822 H   0  0  0  0  0  0  0  0  0  0  0  0
   -1.0045   -1.7752    1.2378 H   0  0  0  0  0  0  0  0  0  0  0  0
   -3.1819   -0.4593    0.8061 H   0  0  0  0  0  0  0  0  0  0  0  0
   -2.4184   -1.3677   -0.6042 H   0  0  0  0  0  0  0  0  0  0  0  0
   -2.5950    0.8129   -1.5288 H   0  0  0  0  0  0  0  0  0  0  0  0
   -2.3482    1.6221    0.0884 H   0  0  0  0  0  0  0  0  0  0  0  0
   -0.1014    1.7316   -0.4314 H   0  0  0  0  0  0  0  0  0  0  0  0
   -0.3741    0.7791   -1.9107 H   0  0  0  0  0  0  0  0  0  0  0  0
    3.3642   -0.3019   -0.6760 H   0  0  0  0  0  0  0  0  0  0  0  0
    2.0202    0.7842   -1.4578 H   0  0  0  0  0  0  0  0  0  0  0  0
    2.8683    0.8180    1.4890 H   0  0  0  0  0  0  0  0  0  0  0  0
    1.5619    1.8765    0.7398 H   0  0  0  0  0  0  0  0  0  0  0  0
  1  2  1  0
  2  3  1  0
  3  4  1  0
  4  5  1  0
  5  6  1  0
  6  7  1  0
  2  8  1  0
  8  9  1  0
  9  2  1  0
  7  3  1  0
  1 10  1  0
  3 11  1  0
  4 12  1  0
  4 13  1  0
  5 14  1  0
  5 15  1  0
  6 16  1  0
  6 17  1  0
  7 18  1  0
  7 19  1  0
  8 20  1  0
  8 21  1  0
  9 22  1  0
  9 23  1  0
M  END
