
     RDKit          3D

 21 23  0  0  0  0  0  0  0  0999 V2000
    0.8299    1.9362   -0.2942 O   0  0  0  0  0  0  0  0  0  0  0  0
    0.1064    0.7414   -0.2585 C   0  0  0  0  0  0  0  0  0  0  0  0
    0.9041   -0.4888   -0.4935 C   0  0  0  0  0  0  0  0  0  0  0  0
    2.0370   -0.7012    0.5440 C   0  0  0  0  0  0  0  0  0  0  0  0
    2.2993   -0.4833   -0.9427 C   0  0  0  0  0  0  0  0  0  0  0  0
   -0.8462    0.6654    0.9119 C   0  0  0  0  0  0  0  0  0  0  0  0
   -1.7046   -0.5685    1.0615 C   0  0  0  0  0  0  0  0  0  0  0  0
   -2.3028   -0.2507   -0.2886 C   0  0  0  0  0  0  0  0  0  0  0  0
   -1.3319    0.8550   -0.5217 C   0  0  0  0  0  0  0  0  0  0  0  0
    1.5090    1.9586   -1.0011 H   0  0  0  0  0  0  0  0  0  0  0  0
    0.3155   -1.4288   -0.7014 H   0  0  0  0  0  0  0  0  0  0  0  0
    2.3178    0.1745    1.1615 H   0  0  0  0  0  0  0  0  0  0  0  0
    2.1499   -1.7117    0.9569 H   0  0  0  0  0  0  0  0  0  0  0  0
    2.8390    0.4329   -1.2565 H   0  0  0  0  0  0  0  0  0  0  0  0
    2.6750   -1.3883   -1.4891 H   0  0  0  0  0  0  0  0  0  0  0  0
   -0.9144    1.4894    1.6228 H   0  0  0  0  0  0  0  0  0  0  0  0
   -2.3709   -0.4767    1.9219 H   0  0  0  0  0  0  0  0  0  0  0  0
   -1.1745   -1.5326    1.0521 H   0  0  0  0  0  0  0  0  0  0  0  0
   -3.3537    0.0653   -0.1632 H   0  0  0  0  0  0  0  0  0  0  0  0
   -2.2454   -1.1177   -1.0027 H   0  0  0  0  0  0  0  0  0  0  0  0
   -1.7385    1.8296   -0.8195 H   0  0  0  0  0  0  0  0  0  0  0  0
  1  2  1  0
  2  3  1  0
  3  4  1  0
  4  5  1  0
  2  6  1  0
  6  7  1  0
  7  8  1  0
  8  9  1  0
  9  2  1  0
  5  3  1  0
  9  6  1  0
  1 10  1  0
  3 11  1  0
  4 12  1  0
  4 13  1  0
  5 14  1  0
  5 15  1  0
  6 16  1  0
  7 17  1  0
  7 18  1  0
  8 19  1  0
  8 20  1  0
  9 21  1  0
M  END
