
     RDKit          3D

 23 24  0  0  0  0  0  0  0  0999 V2000
   -0.3586    1.2715    1.0661 O   0  0  0  0  0  0  0  0  0  0  0  0
   -0.0283    0.1229    0.3369 C   0  0  0  0  0  0  0  0  0  0  0  0
    1.3878   -0.2293    0.6005 C   0  0  0  0  0  0  0  0  0  0  0  0
    2.4028    0.8048    0.2345 C   0  0  0  0  0  0  0  0  0  0  0  0
    2.3835   -0.4970   -0.4382 C   0  0  0  0  0  0  0  0  0  0  0  0
   -0.3887    0.3324   -1.0871 C   0  0  0  0  0  0  0  0  0  0  0  0
   -1.8942    0.1786   -1.1206 C   0  0  0  0  0  0  0  0  0  0  0  0
   -2.3043   -0.3676    0.2290 C   0  0  0  0  0  0  0  0  0  0  0  0
   -1.0002   -0.9610    0.7711 C   0  0  0  0  0  0  0  0  0  0  0  0
   -0.3768    1.0554    2.0372 H   0  0  0  0  0  0  0  0  0  0  0  0
    1.5555   -0.7050    1.6112 H   0  0  0  0  0  0  0  0  0  0  0  0
    3.1692    1.0809    0.9873 H   0  0  0  0  0  0  0  0  0  0  0  0
    2.0883    1.6925   -0.3726 H   0  0  0  0  0  0  0  0  0  0  0  0
    2.1095   -0.5502   -1.5079 H   0  0  0  0  0  0  0  0  0  0  0  0
    3.2098   -1.1949   -0.1795 H   0  0  0  0  0  0  0  0  0  0  0  0
    0.0956   -0.3851   -1.7857 H   0  0  0  0  0  0  0  0  0  0  0  0
   -0.0617    1.3433   -1.4106 H   0  0  0  0  0  0  0  0  0  0  0  0
   -2.3124    1.2059   -1.2834 H   0  0  0  0  0  0  0  0  0  0  0  0
   -2.2236   -0.5358   -1.9069 H   0  0  0  0  0  0  0  0  0  0  0  0
   -2.5517    0.4668    0.9389 H   0  0  0  0  0  0  0  0  0  0  0  0
   -3.1063   -1.1083    0.1795 H   0  0  0  0  0  0  0  0  0  0  0  0
   -1.0268   -1.1032    1.8553 H   0  0  0  0  0  0  0  0  0  0  0  0
   -0.7682   -1.9175    0.2452 H   0  0  0  0  0  0  0  0  0  0  0  0
  1  2  1  0
  2  3  1  0
  3  4  1  0
  4  5  1  0
  2  6  1  0
  6  7  1  0
  7  8  1  0
  8  9  1  0
  9  2  1  0
  5  3  1  0
  1 10  1  0
  3 11  1  0
  4 12  1  0
  4 13  1  0
  5 14  1  0
  5 15  1  0
  6 16  1  0
  6 17  1  0
  7 18  1  0
  7 19  1  0
  8 20  1  0
  8 21  1  0
  9 22  1  0
  9 23  1  0
M  END
