
     RDKit          3D

 21 22  0  0  0  0  0  0  0  0999 V2000
   -0.8019    0.6303   -1.5467 O   0  0  0  0  0  0  0  0  0  0  0  0
   -1.0946    0.1519   -0.2740 C   0  0  0  0  0  0  0  0  0  0  0  0
    0.0818    0.0179    0.6691 C   0  0  0  0  0  0  0  0  0  0  0  0
    1.0488   -0.9508    0.0622 C   0  0  0  0  0  0  0  0  0  0  0  0
    2.3757   -0.2157    0.0737 C   0  0  0  0  0  0  0  0  0  0  0  0
    1.9392    1.2058    0.2827 C   0  0  0  0  0  0  0  0  0  0  0  0
    0.7206    1.2031    0.8995 O   0  0  0  0  0  0  0  0  0  0  0  0
   -2.4712    0.3885    0.2851 C   0  0  0  0  0  0  0  0  0  0  0  0
   -2.1355   -0.9624   -0.2103 C   0  0  0  0  0  0  0  0  0  0  0  0
   -1.6198    0.9017   -2.0111 H   0  0  0  0  0  0  0  0  0  0  0  0
   -0.2893   -0.3740    1.6533 H   0  0  0  0  0  0  0  0  0  0  0  0
    1.1025   -1.8669    0.6605 H   0  0  0  0  0  0  0  0  0  0  0  0
    0.7972   -1.1996   -1.0023 H   0  0  0  0  0  0  0  0  0  0  0  0
    2.8850   -0.3536   -0.9062 H   0  0  0  0  0  0  0  0  0  0  0  0
    3.0495   -0.6026    0.8433 H   0  0  0  0  0  0  0  0  0  0  0  0
    1.8137    1.6856   -0.7254 H   0  0  0  0  0  0  0  0  0  0  0  0
    2.7329    1.7114    0.8729 H   0  0  0  0  0  0  0  0  0  0  0  0
   -3.0973    1.0686   -0.3330 H   0  0  0  0  0  0  0  0  0  0  0  0
   -2.5061    0.6284    1.3657 H   0  0  0  0  0  0  0  0  0  0  0  0
   -1.9332   -1.7724    0.4972 H   0  0  0  0  0  0  0  0  0  0  0  0
   -2.5979   -1.2952   -1.1562 H   0  0  0  0  0  0  0  0  0  0  0  0
  1  2  1  0
  2  3  1  0
  3  4  1  0
  4  5  1  0
  5  6  1  0
  6  7  1  0
  2  8  1  0
  8  9  1  0
  9  2  1  0
  7  3  1  0
  1 10  1  0
  3 11  1  0
  4 12  1  0
  4 13  1  0
  5 14  1  0
  5 15  1  0
  6 16  1  0
  6 17  1  0
  8 18  1  0
  8 19  1  0
  9 20  1  0
  9 21  1  0
M  END
