
     RDKit          3D

 18 19  0  0  0  0  0  0  0  0999 V2000
   -0.6209    1.5252    0.5958 O   0  0  0  0  0  0  0  0  0  0  0  0
   -0.7285    0.1489    0.4932 C   0  0  0  0  0  0  0  0  0  0  0  0
    0.4742   -0.6928    0.8605 C   0  0  0  0  0  0  0  0  0  0  0  0
    1.6787   -0.3983    0.0267 C   0  0  0  0  0  0  0  0  0  0  0  0
    2.3008    0.9486   -0.0142 C   0  0  0  0  0  0  0  0  0  0  0  0
    2.8282    0.0254    0.8697 O   0  0  0  0  0  0  0  0  0  0  0  0
   -2.0714   -0.4963    0.8701 C   0  0  0  0  0  0  0  0  0  0  0  0
   -1.6875   -0.3353   -0.5537 C   0  0  0  0  0  0  0  0  0  0  0  0
   -1.2289    2.0169    0.0180 H   0  0  0  0  0  0  0  0  0  0  0  0
    0.6420   -0.5134    1.9606 H   0  0  0  0  0  0  0  0  0  0  0  0
    0.2484   -1.7761    0.7825 H   0  0  0  0  0  0  0  0  0  0  0  0
    1.9895   -1.1768   -0.7158 H   0  0  0  0  0  0  0  0  0  0  0  0
    1.6880    1.7910    0.3472 H   0  0  0  0  0  0  0  0  0  0  0  0
    2.9717    1.1139   -0.9073 H   0  0  0  0  0  0  0  0  0  0  0  0
   -2.8184    0.1882    1.3385 H   0  0  0  0  0  0  0  0  0  0  0  0
   -2.0451   -1.5056    1.3324 H   0  0  0  0  0  0  0  0  0  0  0  0
   -2.2459    0.3879   -1.1553 H   0  0  0  0  0  0  0  0  0  0  0  0
   -1.3749   -1.2516   -1.0842 H   0  0  0  0  0  0  0  0  0  0  0  0
  1  2  1  0
  2  3  1  0
  3  4  1  0
  4  5  1  0
  5  6  1  0
  2  7  1  0
  7  8  1  0
  8  2  1  0
  6  4  1  0
  1  9  1  0
  3 10  1  0
  3 11  1  0
  4 12  1  0
  5 13  1  0
  5 14  1  0
  7 15  1  0
  7 16  1  0
  8 17  1  0
  8 18  1  0
M  END
