
     RDKit          3D

 19 21  0  0  0  0  0  0  0  0999 V2000
   -0.8584   -0.4134    1.5324 O   0  0  0  0  0  0  0  0  0  0  0  0
   -0.8991    0.0515    0.2094 C   0  0  0  0  0  0  0  0  0  0  0  0
    0.4550    0.2234   -0.4074 C   0  0  0  0  0  0  0  0  0  0  0  0
    1.2994   -1.0315   -0.4871 C   0  0  0  0  0  0  0  0  0  0  0  0
    2.4122   -0.2720    0.1742 C   0  0  0  0  0  0  0  0  0  0  0  0
    2.6797    1.0432   -0.1322 O   0  0  0  0  0  0  0  0  0  0  0  0
    1.5271    0.7361    0.5223 C   0  0  0  0  0  0  0  0  0  0  0  0
   -1.9895    0.9608   -0.2335 C   0  0  0  0  0  0  0  0  0  0  0  0
   -2.0400   -0.4779   -0.5864 C   0  0  0  0  0  0  0  0  0  0  0  0
   -0.8185    0.3236    2.1848 H   0  0  0  0  0  0  0  0  0  0  0  0
    0.4049    0.7177   -1.3983 H   0  0  0  0  0  0  0  0  0  0  0  0
    1.5401   -1.3982   -1.4801 H   0  0  0  0  0  0  0  0  0  0  0  0
    0.9042   -1.8292    0.1842 H   0  0  0  0  0  0  0  0  0  0  0  0
    3.2168   -0.7760    0.7079 H   0  0  0  0  0  0  0  0  0  0  0  0
    1.2900    1.0670    1.5343 H   0  0  0  0  0  0  0  0  0  0  0  0
   -1.7576    1.6631   -1.0631 H   0  0  0  0  0  0  0  0  0  0  0  0
   -2.7598    1.3377    0.4505 H   0  0  0  0  0  0  0  0  0  0  0  0
   -2.8390   -1.0834   -0.1128 H   0  0  0  0  0  0  0  0  0  0  0  0
   -1.7675   -0.8425   -1.5990 H   0  0  0  0  0  0  0  0  0  0  0  0
  1  2  1  0
  2  3  1  0
  3  4  1  0
  4  5  1  0
  5  6  1  0
  6  7  1  0
  2  8  1  0
  8  9  1  0
  9  2  1  0
  7  3  1  0
  7  5  1  0
  1 10  1  0
  3 11  1  0
  4 12  1  0
  4 13  1  0
  5 14  1  0
  7 15  1  0
  8 16  1  0
  8 17  1  0
  9 18  1  0
  9 19  1  0
M  END
