
     RDKit          3D

 21 23  0  0  0  0  0  0  0  0999 V2000
    0.1765    0.1680   -1.6922 O   0  0  0  0  0  0  0  0  0  0  0  0
   -0.1349    0.1031   -0.3296 C   0  0  0  0  0  0  0  0  0  0  0  0
    1.0831    0.0832    0.5161 C   0  0  0  0  0  0  0  0  0  0  0  0
    2.1143   -0.9508    0.4480 C   0  0  0  0  0  0  0  0  0  0  0  0
    2.3861    0.3437   -0.2104 C   0  0  0  0  0  0  0  0  0  0  0  0
   -1.2231   -0.8925   -0.0283 C   0  0  0  0  0  0  0  0  0  0  0  0
   -2.1352    0.0798   -0.7598 C   0  0  0  0  0  0  0  0  0  0  0  0
   -1.2843    0.9540    0.1138 C   0  0  0  0  0  0  0  0  0  0  0  0
   -1.5074   -0.0878    1.1797 C   0  0  0  0  0  0  0  0  0  0  0  0
    0.2844    1.1152   -1.9168 H   0  0  0  0  0  0  0  0  0  0  0  0
    1.0058    0.6958    1.4551 H   0  0  0  0  0  0  0  0  0  0  0  0
    2.7087   -1.1521    1.3629 H   0  0  0  0  0  0  0  0  0  0  0  0
    1.9814   -1.8692   -0.1688 H   0  0  0  0  0  0  0  0  0  0  0  0
    2.3819    0.3011   -1.3358 H   0  0  0  0  0  0  0  0  0  0  0  0
    3.0911    1.0857    0.1728 H   0  0  0  0  0  0  0  0  0  0  0  0
   -1.1980   -1.8786   -0.1605 H   0  0  0  0  0  0  0  0  0  0  0  0
   -1.8674    0.2162   -1.8272 H   0  0  0  0  0  0  0  0  0  0  0  0
   -3.1958    0.0064   -0.5200 H   0  0  0  0  0  0  0  0  0  0  0  0
   -1.3207    1.9463    0.2175 H   0  0  0  0  0  0  0  0  0  0  0  0
   -2.5699   -0.1776    1.4811 H   0  0  0  0  0  0  0  0  0  0  0  0
   -0.7766   -0.0900    2.0025 H   0  0  0  0  0  0  0  0  0  0  0  0
  1  2  1  0
  2  3  1  0
  3  4  1  0
  4  5  1  0
  2  6  1  0
  6  7  1  0
  7  8  1  0
  8  9  1  0
  8  2  1  0
  5  3  1  0
  9  6  1  0
  1 10  1  0
  3 11  1  0
  4 12  1  0
  4 13  1  0
  5 14  1  0
  5 15  1  0
  6 16  1  0
  7 17  1  0
  7 18  1  0
  8 19  1  0
  9 20  1  0
  9 21  1  0
M  END
