
     RDKit          3D

 21 22  0  0  0  0  0  0  0  0999 V2000
   -0.6976    1.1412    1.5306 O   0  0  0  0  0  0  0  0  0  0  0  0
   -0.2605    0.2483    0.5824 C   0  0  0  0  0  0  0  0  0  0  0  0
    1.0678   -0.3478    0.8831 C   0  0  0  0  0  0  0  0  0  0  0  0
    1.6743   -1.3260   -0.0407 C   0  0  0  0  0  0  0  0  0  0  0  0
    2.2853    0.0577    0.1234 C   0  0  0  0  0  0  0  0  0  0  0  0
   -1.2984   -0.8386    0.4260 C   0  0  0  0  0  0  0  0  0  0  0  0
   -2.1835   -0.5063   -0.4801 C   0  0  0  0  0  0  0  0  0  0  0  0
   -1.8353    0.8297   -1.0224 C   0  0  0  0  0  0  0  0  0  0  0  0
   -0.3459    0.9060   -0.7785 C   0  0  0  0  0  0  0  0  0  0  0  0
    0.0242    1.3071    2.1857 H   0  0  0  0  0  0  0  0  0  0  0  0
    1.2576   -0.4895    1.9848 H   0  0  0  0  0  0  0  0  0  0  0  0
    1.2222   -1.5424   -1.0247 H   0  0  0  0  0  0  0  0  0  0  0  0
    2.1647   -2.1937    0.4181 H   0  0  0  0  0  0  0  0  0  0  0  0
    3.2828    0.0182    0.6245 H   0  0  0  0  0  0  0  0  0  0  0  0
    2.2279    0.7767   -0.7067 H   0  0  0  0  0  0  0  0  0  0  0  0
   -1.2444   -1.7411    1.0226 H   0  0  0  0  0  0  0  0  0  0  0  0
   -3.0530   -1.1078   -0.8015 H   0  0  0  0  0  0  0  0  0  0  0  0
   -2.0026    0.8938   -2.1151 H   0  0  0  0  0  0  0  0  0  0  0  0
   -2.3688    1.6467   -0.4735 H   0  0  0  0  0  0  0  0  0  0  0  0
   -0.0590    1.9602   -0.7686 H   0  0  0  0  0  0  0  0  0  0  0  0
    0.1422    0.3076   -1.5692 H   0  0  0  0  0  0  0  0  0  0  0  0
  1  2  1  0
  2  3  1  0
  3  4  1  0
  4  5  1  0
  2  6  1  0
  6  7  2  0
  7  8  1  0
  8  9  1  0
  9  2  1  0
  5  3  1  0
  1 10  1  0
  3 11  1  0
  4 12  1  0
  4 13  1  0
  5 14  1  0
  5 15  1  0
  6 16  1  0
  7 17  1  0
  8 18  1  0
  8 19  1  0
  9 20  1  0
  9 21  1  0
M  END
