
     RDKit          3D

 17 18  0  0  0  0  0  0  0  0999 V2000
   -0.6661   -0.4406    1.6164 O   0  0  0  0  0  0  0  0  0  0  0  0
   -0.6266   -0.0778    0.2935 C   0  0  0  0  0  0  0  0  0  0  0  0
    0.6735   -0.1877   -0.4793 C   0  0  0  0  0  0  0  0  0  0  0  0
    1.8611    0.6143    0.0140 C   0  0  0  0  0  0  0  0  0  0  0  0
    1.8342   -0.8994    0.0890 C   0  0  0  0  0  0  0  0  0  0  0  0
   -1.9136   -0.2082   -0.5344 C   0  0  0  0  0  0  0  0  0  0  0  0
   -1.5176    1.1434   -0.0349 C   0  0  0  0  0  0  0  0  0  0  0  0
   -1.0748   -1.3382    1.6885 H   0  0  0  0  0  0  0  0  0  0  0  0
    0.5617   -0.2634   -1.5821 H   0  0  0  0  0  0  0  0  0  0  0  0
    2.5081    1.0867   -0.7707 H   0  0  0  0  0  0  0  0  0  0  0  0
    1.8141    1.1666    0.9483 H   0  0  0  0  0  0  0  0  0  0  0  0
    1.7907   -1.3751    1.1050 H   0  0  0  0  0  0  0  0  0  0  0  0
    2.5373   -1.4315   -0.5909 H   0  0  0  0  0  0  0  0  0  0  0  0
   -1.7841   -0.4513   -1.6285 H   0  0  0  0  0  0  0  0  0  0  0  0
   -2.7577   -0.7365   -0.0726 H   0  0  0  0  0  0  0  0  0  0  0  0
   -2.1293    1.5646    0.7665 H   0  0  0  0  0  0  0  0  0  0  0  0
   -1.1108    1.8339   -0.8278 H   0  0  0  0  0  0  0  0  0  0  0  0
  1  2  1  0
  2  3  1  0
  3  4  1  0
  4  5  1  0
  2  6  1  0
  6  7  1  0
  7  2  1  0
  5  3  1  0
  1  8  1  0
  3  9  1  0
  4 10  1  0
  4 11  1  0
  5 12  1  0
  5 13  1  0
  6 14  1  0
  6 15  1  0
  7 16  1  0
  7 17  1  0
M  END
