
     RDKit          3D

 19 20  0  0  0  0  0  0  0  0999 V2000
   -1.0719    1.6951   -0.7347 O   0  0  0  0  0  0  0  0  0  0  0  0
   -0.7939    0.4876   -0.1404 C   0  0  0  0  0  0  0  0  0  0  0  0
    0.5782    0.3984    0.4667 C   0  0  0  0  0  0  0  0  0  0  0  0
    1.7326    0.3426   -0.4596 C   0  0  0  0  0  0  0  0  0  0  0  0
    1.9253   -1.0228    0.1655 C   0  0  0  0  0  0  0  0  0  0  0  0
    0.8752   -0.8000    1.0653 O   0  0  0  0  0  0  0  0  0  0  0  0
   -1.2989   -0.7143   -0.8545 C   0  0  0  0  0  0  0  0  0  0  0  0
   -1.8958   -1.2335    0.2946 O   0  0  0  0  0  0  0  0  0  0  0  0
   -1.8366    0.0425    0.8810 C   0  0  0  0  0  0  0  0  0  0  0  0
   -0.7578    2.4397   -0.1653 H   0  0  0  0  0  0  0  0  0  0  0  0
    0.7097    1.2338    1.2057 H   0  0  0  0  0  0  0  0  0  0  0  0
    1.5442    0.3628   -1.5355 H   0  0  0  0  0  0  0  0  0  0  0  0
    2.5897    1.0334   -0.2157 H   0  0  0  0  0  0  0  0  0  0  0  0
    2.8729   -1.1162    0.7188 H   0  0  0  0  0  0  0  0  0  0  0  0
    1.6746   -1.8263   -0.5326 H   0  0  0  0  0  0  0  0  0  0  0  0
   -2.0424   -0.4453   -1.6591 H   0  0  0  0  0  0  0  0  0  0  0  0
   -0.5787   -1.4265   -1.2559 H   0  0  0  0  0  0  0  0  0  0  0  0
   -1.4392   -0.0605    1.9164 H   0  0  0  0  0  0  0  0  0  0  0  0
   -2.7871    0.6095    0.8394 H   0  0  0  0  0  0  0  0  0  0  0  0
  1  2  1  0
  2  3  1  0
  3  4  1  0
  4  5  1  0
  5  6  1  0
  2  7  1  0
  7  8  1  0
  8  9  1  0
  9  2  1  0
  6  3  1  0
  1 10  1  0
  3 11  1  0
  4 12  1  0
  4 13  1  0
  5 14  1  0
  5 15  1  0
  7 16  1  0
  7 17  1  0
  9 18  1  0
  9 19  1  0
M  END
