
     RDKit          3D

 19 21  0  0  0  0  0  0  0  0999 V2000
   -1.2661    1.5511    0.5112 O   0  0  0  0  0  0  0  0  0  0  0  0
   -0.7987    0.2941    0.1190 C   0  0  0  0  0  0  0  0  0  0  0  0
    0.6623    0.2488   -0.1791 C   0  0  0  0  0  0  0  0  0  0  0  0
    1.3296   -1.0186   -0.6132 C   0  0  0  0  0  0  0  0  0  0  0  0
    2.1394   -0.9196    0.5256 O   0  0  0  0  0  0  0  0  0  0  0  0
    1.6792    0.3269    0.8976 C   0  0  0  0  0  0  0  0  0  0  0  0
    1.5350    1.4357   -0.0711 C   0  0  0  0  0  0  0  0  0  0  0  0
   -1.6676   -0.4744   -0.8544 C   0  0  0  0  0  0  0  0  0  0  0  0
   -1.5485   -0.8887    0.6050 C   0  0  0  0  0  0  0  0  0  0  0  0
   -2.2468    1.4635    0.6312 H   0  0  0  0  0  0  0  0  0  0  0  0
    1.9796   -0.8118   -1.5067 H   0  0  0  0  0  0  0  0  0  0  0  0
    0.7123   -1.9146   -0.6875 H   0  0  0  0  0  0  0  0  0  0  0  0
    1.3953    0.5139    1.9575 H   0  0  0  0  0  0  0  0  0  0  0  0
    2.2539    1.5644   -0.9232 H   0  0  0  0  0  0  0  0  0  0  0  0
    1.1050    2.3614    0.3074 H   0  0  0  0  0  0  0  0  0  0  0  0
   -1.1483   -1.1696   -1.5726 H   0  0  0  0  0  0  0  0  0  0  0  0
   -2.5978   -0.0216   -1.2137 H   0  0  0  0  0  0  0  0  0  0  0  0
   -1.0667   -1.8541    0.8188 H   0  0  0  0  0  0  0  0  0  0  0  0
   -2.4511   -0.6868    1.2483 H   0  0  0  0  0  0  0  0  0  0  0  0
  1  2  1  0
  2  3  1  0
  3  4  1  0
  4  5  1  0
  5  6  1  0
  6  7  1  0
  2  8  1  0
  8  9  1  0
  9  2  1  0
  6  3  1  0
  7  3  1  0
  1 10  1  0
  4 11  1  0
  4 12  1  0
  6 13  1  0
  7 14  1  0
  7 15  1  0
  8 16  1  0
  8 17  1  0
  9 18  1  0
  9 19  1  0
M  END
