
     RDKit          3D

 19 21  0  0  0  0  0  0  0  0999 V2000
    1.1979    1.7153    1.3146 O   0  0  0  0  0  0  0  0  0  0  0  0
    1.0655    0.5805    0.4952 C   0  0  0  0  0  0  0  0  0  0  0  0
   -0.2822    0.4650   -0.1457 C   0  0  0  0  0  0  0  0  0  0  0  0
   -0.4910   -0.6189   -0.9627 O   0  0  0  0  0  0  0  0  0  0  0  0
   -1.5956   -1.1249   -0.2799 C   0  0  0  0  0  0  0  0  0  0  0  0
   -2.7158   -0.1885    0.0157 C   0  0  0  0  0  0  0  0  0  0  0  0
   -1.4103    0.0100    0.7227 C   0  0  0  0  0  0  0  0  0  0  0  0
    1.9209   -0.5635    0.7978 C   0  0  0  0  0  0  0  0  0  0  0  0
    2.2240    0.2883   -0.4211 C   0  0  0  0  0  0  0  0  0  0  0  0
    0.5538    1.6091    2.0852 H   0  0  0  0  0  0  0  0  0  0  0  0
   -0.5530    1.4539   -0.6146 H   0  0  0  0  0  0  0  0  0  0  0  0
   -1.5632   -2.1344    0.1369 H   0  0  0  0  0  0  0  0  0  0  0  0
   -2.9099    0.5638   -0.7835 H   0  0  0  0  0  0  0  0  0  0  0  0
   -3.5352   -0.5357    0.6509 H   0  0  0  0  0  0  0  0  0  0  0  0
   -1.2881   -0.2129    1.7792 H   0  0  0  0  0  0  0  0  0  0  0  0
    2.6793   -0.4650    1.5897 H   0  0  0  0  0  0  0  0  0  0  0  0
    1.6068   -1.6232    0.6272 H   0  0  0  0  0  0  0  0  0  0  0  0
    2.0562   -0.2234   -1.3839 H   0  0  0  0  0  0  0  0  0  0  0  0
    3.0401    1.0046   -0.4128 H   0  0  0  0  0  0  0  0  0  0  0  0
  1  2  1  0
  2  3  1  0
  3  4  1  0
  4  5  1  0
  5  6  1  0
  6  7  1  0
  2  8  1  0
  8  9  1  0
  9  2  1  0
  7  3  1  0
  7  5  1  0
  1 10  1  0
  3 11  1  0
  5 12  1  0
  6 13  1  0
  6 14  1  0
  7 15  1  0
  8 16  1  0
  8 17  1  0
  9 18  1  0
  9 19  1  0
M  END
