
     RDKit          3D

 18 19  0  0  0  0  0  0  0  0999 V2000
   -1.0488   -0.5466   -1.7459 O   0  0  0  0  0  0  0  0  0  0  0  0
   -0.7330   -0.1939   -0.4243 C   0  0  0  0  0  0  0  0  0  0  0  0
    0.6286   -0.6080    0.0188 C   0  0  0  0  0  0  0  0  0  0  0  0
    1.7860   -0.0411   -0.7722 C   0  0  0  0  0  0  0  0  0  0  0  0
    2.5156   -0.0952    0.4408 O   0  0  0  0  0  0  0  0  0  0  0  0
    1.2900    0.2488    1.0641 C   0  0  0  0  0  0  0  0  0  0  0  0
   -1.5065    0.8774    0.1998 C   0  0  0  0  0  0  0  0  0  0  0  0
   -1.8269   -0.5254    0.6093 C   0  0  0  0  0  0  0  0  0  0  0  0
   -0.5182   -0.0636   -2.3974 H   0  0  0  0  0  0  0  0  0  0  0  0
    0.7937   -1.6741    0.2214 H   0  0  0  0  0  0  0  0  0  0  0  0
    2.1513   -0.7188   -1.5526 H   0  0  0  0  0  0  0  0  0  0  0  0
    1.6999    1.0314   -1.0368 H   0  0  0  0  0  0  0  0  0  0  0  0
    1.1502    1.3463    0.9171 H   0  0  0  0  0  0  0  0  0  0  0  0
    1.2774   -0.1133    2.0882 H   0  0  0  0  0  0  0  0  0  0  0  0
   -1.1158    1.5749    0.9552 H   0  0  0  0  0  0  0  0  0  0  0  0
   -2.3116    1.3438   -0.4365 H   0  0  0  0  0  0  0  0  0  0  0  0
   -1.5196   -0.7950    1.6244 H   0  0  0  0  0  0  0  0  0  0  0  0
   -2.7122   -1.0475    0.2265 H   0  0  0  0  0  0  0  0  0  0  0  0
  1  2  1  0
  2  3  1  0
  3  4  1  0
  4  5  1  0
  5  6  1  0
  2  7  1  0
  7  8  1  0
  8  2  1  0
  6  3  1  0
  1  9  1  0
  3 10  1  0
  4 11  1  0
  4 12  1  0
  6 13  1  0
  6 14  1  0
  7 15  1  0
  7 16  1  0
  8 17  1  0
  8 18  1  0
M  END
