
     RDKit          3D

 20 21  0  0  0  0  0  0  0  0999 V2000
    2.1344   -1.2619   -1.0270 O   0  0  0  0  0  0  0  0  0  0  0  0
    1.2841   -0.3735   -0.3406 C   0  0  0  0  0  0  0  0  0  0  0  0
   -0.1268   -0.8657   -0.2895 C   0  0  0  0  0  0  0  0  0  0  0  0
   -1.0754    0.0378    0.4278 C   0  0  0  0  0  0  0  0  0  0  0  0
   -2.4994   -0.4698    0.4733 C   0  0  0  0  0  0  0  0  0  0  0  0
   -2.1537    0.7305   -0.3977 C   0  0  0  0  0  0  0  0  0  0  0  0
    1.6868    1.0148   -0.3035 C   0  0  0  0  0  0  0  0  0  0  0  0
    1.9035    0.1471    0.9376 C   0  0  0  0  0  0  0  0  0  0  0  0
    2.8393   -0.7647   -1.5336 H   0  0  0  0  0  0  0  0  0  0  0  0
   -0.1268   -1.8454    0.2630 H   0  0  0  0  0  0  0  0  0  0  0  0
   -0.5096   -1.0152   -1.3213 H   0  0  0  0  0  0  0  0  0  0  0  0
   -0.7472    0.6351    1.2986 H   0  0  0  0  0  0  0  0  0  0  0  0
   -3.1074   -0.3139    1.3823 H   0  0  0  0  0  0  0  0  0  0  0  0
   -2.7895   -1.3503   -0.1072 H   0  0  0  0  0  0  0  0  0  0  0  0
   -2.0448    0.6008   -1.4738 H   0  0  0  0  0  0  0  0  0  0  0  0
   -2.5534    1.6965   -0.0527 H   0  0  0  0  0  0  0  0  0  0  0  0
    1.0402    1.8747   -0.1093 H   0  0  0  0  0  0  0  0  0  0  0  0
    2.6330    1.3071   -0.8389 H   0  0  0  0  0  0  0  0  0  0  0  0
    2.9446   -0.1080    1.1896 H   0  0  0  0  0  0  0  0  0  0  0  0
    1.2680    0.3241    1.8230 H   0  0  0  0  0  0  0  0  0  0  0  0
  1  2  1  0
  2  3  1  0
  3  4  1  0
  4  5  1  0
  5  6  1  0
  2  7  1  0
  7  8  1  0
  8  2  1  0
  6  4  1  0
  1  9  1  0
  3 10  1  0
  3 11  1  0
  4 12  1  0
  5 13  1  0
  5 14  1  0
  6 15  1  0
  6 16  1  0
  7 17  1  0
  7 18  1  0
  8 19  1  0
  8 20  1  0
M  END
