
     RDKit          3D

 21 22  0  0  0  0  0  0  0  0999 V2000
   -0.8451   -1.3907   -1.2349 O   0  0  0  0  0  0  0  0  0  0  0  0
   -1.1212   -0.2872   -0.4403 C   0  0  0  0  0  0  0  0  0  0  0  0
    0.0018    0.6757   -0.2578 C   0  0  0  0  0  0  0  0  0  0  0  0
    1.2380    0.1514    0.3703 C   0  0  0  0  0  0  0  0  0  0  0  0
    1.9536   -0.9662   -0.3113 C   0  0  0  0  0  0  0  0  0  0  0  0
    2.3735   -0.0239   -1.2767 O   0  0  0  0  0  0  0  0  0  0  0  0
    2.4536    0.8879   -0.1964 C   0  0  0  0  0  0  0  0  0  0  0  0
   -2.4608    0.4150   -0.7542 C   0  0  0  0  0  0  0  0  0  0  0  0
   -2.2593   -0.3798    0.4939 C   0  0  0  0  0  0  0  0  0  0  0  0
   -1.6645   -1.7763   -1.5949 H   0  0  0  0  0  0  0  0  0  0  0  0
   -0.3279    1.5626    0.3481 H   0  0  0  0  0  0  0  0  0  0  0  0
    0.2651    1.1041   -1.2571 H   0  0  0  0  0  0  0  0  0  0  0  0
    1.2812    0.1579    1.4787 H   0  0  0  0  0  0  0  0  0  0  0  0
    2.8559   -1.2609    0.2778 H   0  0  0  0  0  0  0  0  0  0  0  0
    1.3731   -1.8086   -0.6907 H   0  0  0  0  0  0  0  0  0  0  0  0
    3.3707    0.7585    0.3856 H   0  0  0  0  0  0  0  0  0  0  0  0
    2.1886    1.9271   -0.4681 H   0  0  0  0  0  0  0  0  0  0  0  0
   -3.0612   -0.0281   -1.5886 H   0  0  0  0  0  0  0  0  0  0  0  0
   -2.5326    1.4919   -0.6188 H   0  0  0  0  0  0  0  0  0  0  0  0
   -2.2757    0.1351    1.4715 H   0  0  0  0  0  0  0  0  0  0  0  0
   -2.8067   -1.3454    0.5132 H   0  0  0  0  0  0  0  0  0  0  0  0
  1  2  1  0
  2  3  1  0
  3  4  1  0
  4  5  1  0
  5  6  1  0
  6  7  1  0
  2  8  1  0
  8  9  1  0
  9  2  1  0
  7  4  1  0
  1 10  1  0
  3 11  1  0
  3 12  1  0
  4 13  1  0
  5 14  1  0
  5 15  1  0
  7 16  1  0
  7 17  1  0
  8 18  1  0
  8 19  1  0
  9 20  1  0
  9 21  1  0
M  END
