
     RDKit          3D

 21 22  0  0  0  0  0  0  0  0999 V2000
    0.1940   -0.8686   -1.5580 O   0  0  0  0  0  0  0  0  0  0  0  0
    0.2697   -0.0602   -0.4329 C   0  0  0  0  0  0  0  0  0  0  0  0
   -1.0385    0.2589    0.2278 C   0  0  0  0  0  0  0  0  0  0  0  0
   -0.9218    1.0722    1.3530 O   0  0  0  0  0  0  0  0  0  0  0  0
   -1.9147   -0.9907    0.4425 C   0  0  0  0  0  0  0  0  0  0  0  0
   -2.3294    0.1449   -0.4649 C   0  0  0  0  0  0  0  0  0  0  0  0
    1.2192   -0.6880    0.5947 C   0  0  0  0  0  0  0  0  0  0  0  0
    2.3200    0.2558    0.1599 C   0  0  0  0  0  0  0  0  0  0  0  0
    1.2377    1.0699   -0.5558 C   0  0  0  0  0  0  0  0  0  0  0  0
    0.9388   -1.5143   -1.5988 H   0  0  0  0  0  0  0  0  0  0  0  0
   -0.9740    2.0407    1.1173 H   0  0  0  0  0  0  0  0  0  0  0  0
   -1.6519   -1.9092   -0.0913 H   0  0  0  0  0  0  0  0  0  0  0  0
   -2.3893   -1.1035    1.4303 H   0  0  0  0  0  0  0  0  0  0  0  0
   -3.1677    0.7583   -0.0238 H   0  0  0  0  0  0  0  0  0  0  0  0
   -2.4337   -0.0222   -1.5397 H   0  0  0  0  0  0  0  0  0  0  0  0
    1.4158   -1.7461    0.4147 H   0  0  0  0  0  0  0  0  0  0  0  0
    0.8876   -0.5402    1.6510 H   0  0  0  0  0  0  0  0  0  0  0  0
    2.7291    0.7966    1.0199 H   0  0  0  0  0  0  0  0  0  0  0  0
    3.0176   -0.2612   -0.4985 H   0  0  0  0  0  0  0  0  0  0  0  0
    0.9764    2.0177   -0.0623 H   0  0  0  0  0  0  0  0  0  0  0  0
    1.6152    1.2891   -1.5852 H   0  0  0  0  0  0  0  0  0  0  0  0
  1  2  1  0
  2  3  1  0
  3  4  1  0
  3  5  1  0
  5  6  1  0
  2  7  1  0
  7  8  1  0
  8  9  1  0
  9  2  1  0
  6  3  1  0
  1 10  1  0
  4 11  1  0
  5 12  1  0
  5 13  1  0
  6 14  1  0
  6 15  1  0
  7 16  1  0
  7 17  1  0
  8 18  1  0
  8 19  1  0
  9 20  1  0
  9 21  1  0
M  END
