
     RDKit          3D

 23 24  0  0  0  0  0  0  0  0999 V2000
   -1.4890    0.5952   -1.7892 O   0  0  0  0  0  0  0  0  0  0  0  0
   -1.4908    0.4020   -0.4093 C   0  0  0  0  0  0  0  0  0  0  0  0
   -0.4794    1.2576    0.3493 C   0  0  0  0  0  0  0  0  0  0  0  0
    0.8959    0.9444   -0.1308 C   0  0  0  0  0  0  0  0  0  0  0  0
    1.3078   -0.4820    0.0539 C   0  0  0  0  0  0  0  0  0  0  0  0
    2.7386   -0.7485   -0.4602 C   0  0  0  0  0  0  0  0  0  0  0  0
    2.3080   -0.9233    1.0165 C   0  0  0  0  0  0  0  0  0  0  0  0
   -2.9081    0.3545    0.2302 C   0  0  0  0  0  0  0  0  0  0  0  0
   -2.0381   -0.8274    0.1915 C   0  0  0  0  0  0  0  0  0  0  0  0
   -1.3095   -0.2920   -2.2167 H   0  0  0  0  0  0  0  0  0  0  0  0
   -0.6114    1.1747    1.4347 H   0  0  0  0  0  0  0  0  0  0  0  0
   -0.7126    2.3075    0.0752 H   0  0  0  0  0  0  0  0  0  0  0  0
    0.9184    1.1423   -1.2335 H   0  0  0  0  0  0  0  0  0  0  0  0
    1.6377    1.6402    0.3086 H   0  0  0  0  0  0  0  0  0  0  0  0
    0.5488   -1.2244   -0.2795 H   0  0  0  0  0  0  0  0  0  0  0  0
    3.3909    0.0974   -0.6603 H   0  0  0  0  0  0  0  0  0  0  0  0
    2.8824   -1.7087   -1.0199 H   0  0  0  0  0  0  0  0  0  0  0  0
    2.2535   -1.9764    1.3803 H   0  0  0  0  0  0  0  0  0  0  0  0
    2.7728   -0.2288    1.7461 H   0  0  0  0  0  0  0  0  0  0  0  0
   -2.9991    0.8716    1.2076 H   0  0  0  0  0  0  0  0  0  0  0  0
   -3.7623    0.5016   -0.4634 H   0  0  0  0  0  0  0  0  0  0  0  0
   -1.5950   -1.1810    1.1537 H   0  0  0  0  0  0  0  0  0  0  0  0
   -2.2594   -1.6964   -0.4848 H   0  0  0  0  0  0  0  0  0  0  0  0
  1  2  1  0
  2  3  1  0
  3  4  1  0
  4  5  1  0
  5  6  1  0
  6  7  1  0
  2  8  1  0
  8  9  1  0
  9  2  1  0
  7  5  1  0
  1 10  1  0
  3 11  1  0
  3 12  1  0
  4 13  1  0
  4 14  1  0
  5 15  1  0
  6 16  1  0
  6 17  1  0
  7 18  1  0
  7 19  1  0
  8 20  1  0
  8 21  1  0
  9 22  1  0
  9 23  1  0
M  END
