
     RDKit          3D

 19 20  0  0  0  0  0  0  0  0999 V2000
   -1.1038   -1.0014    1.3055 O   0  0  0  0  0  0  0  0  0  0  0  0
   -1.0553   -0.1443    0.2233 C   0  0  0  0  0  0  0  0  0  0  0  0
    0.3329    0.1289   -0.2906 C   0  0  0  0  0  0  0  0  0  0  0  0
    1.2379    0.6616    0.7438 C   0  0  0  0  0  0  0  0  0  0  0  0
    2.4300    0.1099    0.5616 C   0  0  0  0  0  0  0  0  0  0  0  0
    2.3170   -0.8143   -0.6237 C   0  0  0  0  0  0  0  0  0  0  0  0
    0.9399   -1.0308   -0.6939 O   0  0  0  0  0  0  0  0  0  0  0  0
   -2.1430    0.8429    0.1052 C   0  0  0  0  0  0  0  0  0  0  0  0
   -2.1009   -0.2729   -0.8715 C   0  0  0  0  0  0  0  0  0  0  0  0
   -1.3723   -0.4487    2.0950 H   0  0  0  0  0  0  0  0  0  0  0  0
    0.2985    0.8693   -1.1308 H   0  0  0  0  0  0  0  0  0  0  0  0
    0.9507    1.3792    1.5081 H   0  0  0  0  0  0  0  0  0  0  0  0
    3.3276    0.2968    1.1662 H   0  0  0  0  0  0  0  0  0  0  0  0
    2.8205   -1.7795   -0.4392 H   0  0  0  0  0  0  0  0  0  0  0  0
    2.6350   -0.3209   -1.5587 H   0  0  0  0  0  0  0  0  0  0  0  0
   -2.9756    0.7786    0.8456 H   0  0  0  0  0  0  0  0  0  0  0  0
   -1.9404    1.8651   -0.2230 H   0  0  0  0  0  0  0  0  0  0  0  0
   -1.8168    0.0148   -1.9012 H   0  0  0  0  0  0  0  0  0  0  0  0
   -2.7818   -1.1342   -0.8217 H   0  0  0  0  0  0  0  0  0  0  0  0
  1  2  1  0
  2  3  1  0
  3  4  1  0
  4  5  2  0
  5  6  1  0
  6  7  1  0
  2  8  1  0
  8  9  1  0
  9  2  1  0
  7  3  1  0
  1 10  1  0
  3 11  1  0
  4 12  1  0
  5 13  1  0
  6 14  1  0
  6 15  1  0
  8 16  1  0
  8 17  1  0
  9 18  1  0
  9 19  1  0
M  END
