
     RDKit          3D

 19 21  0  0  0  0  0  0  0  0999 V2000
    0.1321    2.0758   -0.5396 O   0  0  0  0  0  0  0  0  0  0  0  0
   -0.0902    0.7095   -0.3166 C   0  0  0  0  0  0  0  0  0  0  0  0
   -1.5402    0.3142   -0.4427 C   0  0  0  0  0  0  0  0  0  0  0  0
   -2.1342   -0.5518    0.5127 C   0  0  0  0  0  0  0  0  0  0  0  0
   -2.4809    0.9140    0.4151 O   0  0  0  0  0  0  0  0  0  0  0  0
    0.7280   -0.1891   -1.2514 C   0  0  0  0  0  0  0  0  0  0  0  0
    1.1012   -0.9841   -0.0122 C   0  0  0  0  0  0  0  0  0  0  0  0
    2.0007   -0.2465    0.9064 C   0  0  0  0  0  0  0  0  0  0  0  0
    0.5744    0.1517    0.8884 C   0  0  0  0  0  0  0  0  0  0  0  0
    1.0149    2.2569   -0.9350 H   0  0  0  0  0  0  0  0  0  0  0  0
   -1.9764    0.2896   -1.4900 H   0  0  0  0  0  0  0  0  0  0  0  0
   -3.0059   -1.1792    0.1959 H   0  0  0  0  0  0  0  0  0  0  0  0
   -1.8949   -0.6977    1.5663 H   0  0  0  0  0  0  0  0  0  0  0  0
    1.6357    0.3025   -1.6465 H   0  0  0  0  0  0  0  0  0  0  0  0
    0.1450   -0.7089   -2.0064 H   0  0  0  0  0  0  0  0  0  0  0  0
    0.6481   -1.9458    0.2030 H   0  0  0  0  0  0  0  0  0  0  0  0
    2.3619   -0.7966    1.7744 H   0  0  0  0  0  0  0  0  0  0  0  0
    2.7859    0.3633    0.4004 H   0  0  0  0  0  0  0  0  0  0  0  0
   -0.0052   -0.0778    1.7779 H   0  0  0  0  0  0  0  0  0  0  0  0
  1  2  1  0
  2  3  1  0
  3  4  1  0
  4  5  1  0
  2  6  1  0
  6  7  1  0
  7  8  1  0
  8  9  1  0
  9  2  1  0
  5  3  1  0
  9  7  1  0
  1 10  1  0
  3 11  1  0
  4 12  1  0
  4 13  1  0
  6 14  1  0
  6 15  1  0
  7 16  1  0
  8 17  1  0
  8 18  1  0
  9 19  1  0
M  END
