
     RDKit          3D

 19 20  0  0  0  0  0  0  0  0999 V2000
    0.5092   -0.9703   -1.1053 O   0  0  0  0  0  0  0  0  0  0  0  0
    0.1452   -0.1296   -0.0686 C   0  0  0  0  0  0  0  0  0  0  0  0
    1.2792    0.2141    0.8544 C   0  0  0  0  0  0  0  0  0  0  0  0
    2.6119   -0.3762    0.4101 C   0  0  0  0  0  0  0  0  0  0  0  0
    1.9489   -0.7854    1.5434 O   0  0  0  0  0  0  0  0  0  0  0  0
   -0.3598    1.1370   -0.6523 C   0  0  0  0  0  0  0  0  0  0  0  0
   -1.6758    1.1039   -0.7095 C   0  0  0  0  0  0  0  0  0  0  0  0
   -2.1665   -0.1761   -0.1743 C   0  0  0  0  0  0  0  0  0  0  0  0
   -1.0222   -0.7517    0.6579 C   0  0  0  0  0  0  0  0  0  0  0  0
    0.9948   -0.4956   -1.8320 H   0  0  0  0  0  0  0  0  0  0  0  0
    1.2698    1.1872    1.3572 H   0  0  0  0  0  0  0  0  0  0  0  0
    3.4395    0.3568    0.4702 H   0  0  0  0  0  0  0  0  0  0  0  0
    2.6432   -1.0678   -0.4289 H   0  0  0  0  0  0  0  0  0  0  0  0
    0.2594    1.9792   -0.9880 H   0  0  0  0  0  0  0  0  0  0  0  0
   -2.2901    1.9447   -1.1110 H   0  0  0  0  0  0  0  0  0  0  0  0
   -2.4441   -0.8493   -1.0019 H   0  0  0  0  0  0  0  0  0  0  0  0
   -3.0054    0.0130    0.5355 H   0  0  0  0  0  0  0  0  0  0  0  0
   -1.0493   -1.8583    0.5293 H   0  0  0  0  0  0  0  0  0  0  0  0
   -1.0879   -0.4755    1.7138 H   0  0  0  0  0  0  0  0  0  0  0  0
  1  2  1  0
  2  3  1  0
  3  4  1  0
  4  5  1  0
  2  6  1  0
  6  7  2  0
  7  8  1  0
  8  9  1  0
  9  2  1  0
  5  3  1  0
  1 10  1  0
  3 11  1  0
  4 12  1  0
  4 13  1  0
  6 14  1  0
  7 15  1  0
  8 16  1  0
  8 17  1  0
  9 18  1  0
  9 19  1  0
M  END
