
     RDKit          3D

 19 21  0  0  0  0  0  0  0  0999 V2000
   -1.2567   -1.3134   -1.1219 O   0  0  0  0  0  0  0  0  0  0  0  0
   -0.9664   -0.2642   -0.2527 C   0  0  0  0  0  0  0  0  0  0  0  0
    0.4271    0.2658   -0.2951 C   0  0  0  0  0  0  0  0  0  0  0  0
    1.3487   -0.3410   -1.2775 C   0  0  0  0  0  0  0  0  0  0  0  0
    1.5982   -0.5108    0.1548 C   0  0  0  0  0  0  0  0  0  0  0  0
    2.0647    0.7509    0.8689 C   0  0  0  0  0  0  0  0  0  0  0  0
    0.8195    1.3017    0.5222 O   0  0  0  0  0  0  0  0  0  0  0  0
   -1.8416   -0.1328    0.9278 C   0  0  0  0  0  0  0  0  0  0  0  0
   -2.0460    0.8383   -0.1888 C   0  0  0  0  0  0  0  0  0  0  0  0
   -1.1716   -2.1524   -0.6325 H   0  0  0  0  0  0  0  0  0  0  0  0
    0.9909   -1.2073   -1.8361 H   0  0  0  0  0  0  0  0  0  0  0  0
    2.0738    0.3311   -1.8216 H   0  0  0  0  0  0  0  0  0  0  0  0
    1.5188   -1.4502    0.7006 H   0  0  0  0  0  0  0  0  0  0  0  0
    2.2511    0.6482    1.9349 H   0  0  0  0  0  0  0  0  0  0  0  0
    2.8474    1.2893    0.2783 H   0  0  0  0  0  0  0  0  0  0  0  0
   -1.3818    0.1840    1.8713 H   0  0  0  0  0  0  0  0  0  0  0  0
   -2.6650   -0.8669    1.0468 H   0  0  0  0  0  0  0  0  0  0  0  0
   -1.7099    1.8726   -0.0117 H   0  0  0  0  0  0  0  0  0  0  0  0
   -2.9010    0.7571   -0.8675 H   0  0  0  0  0  0  0  0  0  0  0  0
  1  2  1  0
  2  3  1  0
  3  4  1  0
  4  5  1  0
  5  6  1  0
  6  7  1  0
  2  8  1  0
  8  9  1  0
  9  2  1  0
  5  3  1  0
  7  3  1  0
  1 10  1  0
  4 11  1  0
  4 12  1  0
  5 13  1  0
  6 14  1  0
  6 15  1  0
  8 16  1  0
  8 17  1  0
  9 18  1  0
  9 19  1  0
M  END
