
     RDKit          3D

 19 20  0  0  0  0  0  0  0  0999 V2000
    0.6847    0.9872    1.6399 O   0  0  0  0  0  0  0  0  0  0  0  0
    0.5944    0.2212    0.4840 C   0  0  0  0  0  0  0  0  0  0  0  0
   -0.7844   -0.2738    0.2762 C   0  0  0  0  0  0  0  0  0  0  0  0
   -1.8715    0.7283    0.1242 C   0  0  0  0  0  0  0  0  0  0  0  0
   -1.7262    0.6282   -1.2661 O   0  0  0  0  0  0  0  0  0  0  0  0
   -1.2367   -0.6649   -1.0807 C   0  0  0  0  0  0  0  0  0  0  0  0
    1.7041   -0.7945    0.4365 C   0  0  0  0  0  0  0  0  0  0  0  0
    2.5325    0.2668   -0.0073 O   0  0  0  0  0  0  0  0  0  0  0  0
    1.3738    0.7183   -0.6865 C   0  0  0  0  0  0  0  0  0  0  0  0
    0.6591    0.3383    2.4042 H   0  0  0  0  0  0  0  0  0  0  0  0
   -1.0468   -1.0314    1.0597 H   0  0  0  0  0  0  0  0  0  0  0  0
   -2.8753    0.3314    0.4056 H   0  0  0  0  0  0  0  0  0  0  0  0
   -1.6786    1.7492    0.5174 H   0  0  0  0  0  0  0  0  0  0  0  0
   -0.5113   -0.9292   -1.8428 H   0  0  0  0  0  0  0  0  0  0  0  0
   -2.0758   -1.4191   -1.0298 H   0  0  0  0  0  0  0  0  0  0  0  0
    2.0071   -1.2202    1.4029 H   0  0  0  0  0  0  0  0  0  0  0  0
    1.6421   -1.5184   -0.4075 H   0  0  0  0  0  0  0  0  0  0  0  0
    1.2348    0.0729   -1.5648 H   0  0  0  0  0  0  0  0  0  0  0  0
    1.3738    1.8096   -0.8653 H   0  0  0  0  0  0  0  0  0  0  0  0
  1  2  1  0
  2  3  1  0
  3  4  1  0
  4  5  1  0
  5  6  1  0
  2  7  1  0
  7  8  1  0
  8  9  1  0
  9  2  1  0
  6  3  1  0
  1 10  1  0
  3 11  1  0
  4 12  1  0
  4 13  1  0
  6 14  1  0
  6 15  1  0
  7 16  1  0
  7 17  1  0
  9 18  1  0
  9 19  1  0
M  END
