
     RDKit          3D

 17 18  0  0  0  0  0  0  0  0999 V2000
   -1.9159    0.3692   -1.9427 O   0  0  0  0  0  0  0  0  0  0  0  0
   -1.5104    0.0994   -0.6349 C   0  0  0  0  0  0  0  0  0  0  0  0
   -0.0620    0.1909   -0.3857 C   0  0  0  0  0  0  0  0  0  0  0  0
    1.1319    0.2703   -0.1761 C   0  0  0  0  0  0  0  0  0  0  0  0
    2.5809    0.3581    0.0546 C   0  0  0  0  0  0  0  0  0  0  0  0
    3.1281   -0.0107    1.2959 C   0  0  0  0  0  0  0  0  0  0  0  0
    3.1929   -0.9939    0.2940 O   0  0  0  0  0  0  0  0  0  0  0  0
   -2.2457   -1.0680    0.0058 C   0  0  0  0  0  0  0  0  0  0  0  0
   -2.4192    0.3399    0.5111 C   0  0  0  0  0  0  0  0  0  0  0  0
   -1.6535    1.3165   -2.1136 H   0  0  0  0  0  0  0  0  0  0  0  0
    3.1838    0.9339   -0.6863 H   0  0  0  0  0  0  0  0  0  0  0  0
    2.4940   -0.2200    2.1840 H   0  0  0  0  0  0  0  0  0  0  0  0
    4.1459    0.3482    1.5933 H   0  0  0  0  0  0  0  0  0  0  0  0
   -3.0645   -1.5495   -0.5660 H   0  0  0  0  0  0  0  0  0  0  0  0
   -1.6356   -1.7405    0.6324 H   0  0  0  0  0  0  0  0  0  0  0  0
   -1.9241    0.5963    1.4759 H   0  0  0  0  0  0  0  0  0  0  0  0
   -3.4264    0.7600    0.3042 H   0  0  0  0  0  0  0  0  0  0  0  0
  1  2  1  0
  2  3  1  0
  3  4  3  0
  4  5  1  0
  5  6  1  0
  6  7  1  0
  2  8  1  0
  8  9  1  0
  9  2  1  0
  7  5  1  0
  1 10  1  0
  5 11  1  0
  6 12  1  0
  6 13  1  0
  8 14  1  0
  8 15  1  0
  9 16  1  0
  9 17  1  0
M  END
