
     RDKit          3D

 19 21  0  0  0  0  0  0  0  0999 V2000
    1.0453   -2.0157   -0.8601 O   0  0  0  0  0  0  0  0  0  0  0  0
    0.4899   -0.8600   -0.2648 C   0  0  0  0  0  0  0  0  0  0  0  0
    1.3328   -0.2862    0.8227 C   0  0  0  0  0  0  0  0  0  0  0  0
    1.9019    1.0825    0.5322 C   0  0  0  0  0  0  0  0  0  0  0  0
    0.9340    0.8506    1.5026 O   0  0  0  0  0  0  0  0  0  0  0  0
   -0.9858   -0.9471   -0.1343 C   0  0  0  0  0  0  0  0  0  0  0  0
   -1.7497    0.2125    0.4555 C   0  0  0  0  0  0  0  0  0  0  0  0
   -1.2482    1.0506   -0.6845 C   0  0  0  0  0  0  0  0  0  0  0  0
   -0.2976   -0.0083   -1.1603 C   0  0  0  0  0  0  0  0  0  0  0  0
    1.1666   -2.7177   -0.1706 H   0  0  0  0  0  0  0  0  0  0  0  0
    2.0329   -0.9667    1.3667 H   0  0  0  0  0  0  0  0  0  0  0  0
    1.5423    1.6694   -0.3258 H   0  0  0  0  0  0  0  0  0  0  0  0
    2.9473    1.2842    0.8279 H   0  0  0  0  0  0  0  0  0  0  0  0
   -1.5512   -1.7823   -0.5712 H   0  0  0  0  0  0  0  0  0  0  0  0
   -2.8447   -0.0018    0.4455 H   0  0  0  0  0  0  0  0  0  0  0  0
   -1.3957    0.5428    1.4615 H   0  0  0  0  0  0  0  0  0  0  0  0
   -0.8265    2.0010   -0.3451 H   0  0  0  0  0  0  0  0  0  0  0  0
   -2.0842    1.2115   -1.4135 H   0  0  0  0  0  0  0  0  0  0  0  0
   -0.4094   -0.3191   -2.2416 H   0  0  0  0  0  0  0  0  0  0  0  0
  1  2  1  0
  2  3  1  0
  3  4  1  0
  4  5  1  0
  2  6  1  0
  6  7  1  0
  7  8  1  0
  8  9  1  0
  9  2  1  0
  5  3  1  0
  9  6  1  0
  1 10  1  0
  3 11  1  0
  4 12  1  0
  4 13  1  0
  6 14  1  0
  7 15  1  0
  7 16  1  0
  8 17  1  0
  8 18  1  0
  9 19  1  0
M  END
