
     RDKit          3D

 15 16  0  0  0  0  0  0  0  0999 V2000
    1.7274   -0.9327   -0.4924 O   0  0  0  0  0  0  0  0  0  0  0  0
    0.6385   -0.2616    0.0315 C   0  0  0  0  0  0  0  0  0  0  0  0
   -0.6854   -0.9530   -0.2044 C   0  0  0  0  0  0  0  0  0  0  0  0
   -1.8230   -0.2146   -0.7991 C   0  0  0  0  0  0  0  0  0  0  0  0
   -1.1223   -1.1941   -1.4826 O   0  0  0  0  0  0  0  0  0  0  0  0
    0.6903    1.2207    0.1873 C   0  0  0  0  0  0  0  0  0  0  0  0
    0.8883    0.3405    1.3953 C   0  0  0  0  0  0  0  0  0  0  0  0
    1.8477   -0.8070   -1.4560 H   0  0  0  0  0  0  0  0  0  0  0  0
   -0.9275   -1.7707    0.5127 H   0  0  0  0  0  0  0  0  0  0  0  0
   -1.7063    0.8072   -1.1898 H   0  0  0  0  0  0  0  0  0  0  0  0
   -2.8150   -0.4159   -0.3744 H   0  0  0  0  0  0  0  0  0  0  0  0
   -0.2495    1.7773    0.1379 H   0  0  0  0  0  0  0  0  0  0  0  0
    1.5624    1.7990   -0.2143 H   0  0  0  0  0  0  0  0  0  0  0  0
    0.0609    0.2625    2.1383 H   0  0  0  0  0  0  0  0  0  0  0  0
    1.9134    0.3424    1.8101 H   0  0  0  0  0  0  0  0  0  0  0  0
  1  2  1  0
  2  3  1  0
  3  4  1  0
  4  5  1  0
  2  6  1  0
  6  7  1  0
  7  2  1  0
  5  3  1  0
  1  8  1  0
  3  9  1  0
  4 10  1  0
  4 11  1  0
  6 12  1  0
  6 13  1  0
  7 14  1  0
  7 15  1  0
M  END
