
     RDKit          3D

 19 21  0  0  0  0  0  0  0  0999 V2000
    2.1627    1.1268    0.4003 O   0  0  0  0  0  0  0  0  0  0  0  0
    1.0291    0.4708   -0.1368 C   0  0  0  0  0  0  0  0  0  0  0  0
   -0.1138    1.3313   -0.4962 C   0  0  0  0  0  0  0  0  0  0  0  0
   -1.3867    0.6638   -0.0354 C   0  0  0  0  0  0  0  0  0  0  0  0
   -1.7403   -0.5826   -0.8143 C   0  0  0  0  0  0  0  0  0  0  0  0
   -1.0279   -0.6739    0.4529 C   0  0  0  0  0  0  0  0  0  0  0  0
    0.4481   -0.6753    0.5866 C   0  0  0  0  0  0  0  0  0  0  0  0
    0.9753   -0.8829    1.8597 O   0  0  0  0  0  0  0  0  0  0  0  0
    1.2389   -0.8942   -0.6309 C   0  0  0  0  0  0  0  0  0  0  0  0
    2.6895    0.4033    0.8273 H   0  0  0  0  0  0  0  0  0  0  0  0
   -0.1818    1.6409   -1.5435 H   0  0  0  0  0  0  0  0  0  0  0  0
   -0.0367    2.2860    0.1046 H   0  0  0  0  0  0  0  0  0  0  0  0
   -2.1498    1.2237    0.5036 H   0  0  0  0  0  0  0  0  0  0  0  0
   -2.8004   -0.9079   -0.8482 H   0  0  0  0  0  0  0  0  0  0  0  0
   -1.2424   -0.7236   -1.8118 H   0  0  0  0  0  0  0  0  0  0  0  0
   -1.5722   -1.1589    1.2984 H   0  0  0  0  0  0  0  0  0  0  0  0
    0.7422   -0.0467    2.3780 H   0  0  0  0  0  0  0  0  0  0  0  0
    0.6951   -1.2927   -1.5235 H   0  0  0  0  0  0  0  0  0  0  0  0
    2.2711   -1.3081   -0.5709 H   0  0  0  0  0  0  0  0  0  0  0  0
  1  2  1  0
  2  3  1  0
  3  4  1  0
  4  5  1  0
  5  6  1  0
  6  7  1  0
  7  8  1  0
  7  9  1  0
  7  2  1  0
  9  2  1  0
  6  4  1  0
  1 10  1  0
  3 11  1  0
  3 12  1  0
  4 13  1  0
  5 14  1  0
  5 15  1  0
  6 16  1  0
  8 17  1  0
  9 18  1  0
  9 19  1  0
M  END
