
     RDKit          3D

 19 21  0  0  0  0  0  0  0  0999 V2000
   -1.8883   -1.4052    1.2219 O   0  0  0  0  0  0  0  0  0  0  0  0
   -1.0377   -0.6464    0.4886 C   0  0  0  0  0  0  0  0  0  0  0  0
   -1.1973   -0.3812   -0.9627 C   0  0  0  0  0  0  0  0  0  0  0  0
   -0.6893    1.0331   -0.7133 C   0  0  0  0  0  0  0  0  0  0  0  0
    0.5159    1.3525   -1.2272 O   0  0  0  0  0  0  0  0  0  0  0  0
    1.6084    0.7015   -0.7936 C   0  0  0  0  0  0  0  0  0  0  0  0
    1.4346   -0.3748    0.2006 C   0  0  0  0  0  0  0  0  0  0  0  0
    0.2829   -0.2151    1.1344 C   0  0  0  0  0  0  0  0  0  0  0  0
   -0.7209    0.7654    0.7631 C   0  0  0  0  0  0  0  0  0  0  0  0
   -1.3333   -2.0916    1.7159 H   0  0  0  0  0  0  0  0  0  0  0  0
   -0.5400   -0.9397   -1.6615 H   0  0  0  0  0  0  0  0  0  0  0  0
   -2.2409   -0.3678   -1.3204 H   0  0  0  0  0  0  0  0  0  0  0  0
   -1.4545    1.8173   -0.9587 H   0  0  0  0  0  0  0  0  0  0  0  0
    2.3561    1.4378   -0.3806 H   0  0  0  0  0  0  0  0  0  0  0  0
    2.1408    0.2620   -1.6884 H   0  0  0  0  0  0  0  0  0  0  0  0
    2.3583   -0.4807    0.8240 H   0  0  0  0  0  0  0  0  0  0  0  0
    1.3168   -1.3817   -0.2954 H   0  0  0  0  0  0  0  0  0  0  0  0
    0.3941   -0.4665    2.2063 H   0  0  0  0  0  0  0  0  0  0  0  0
   -1.3059    1.3814    1.4470 H   0  0  0  0  0  0  0  0  0  0  0  0
  1  2  1  0
  2  3  1  0
  3  4  1  0
  4  5  1  0
  5  6  1  0
  6  7  1  0
  7  8  1  0
  8  9  1  0
  8  2  1  0
  9  2  1  0
  9  4  1  0
  1 10  1  0
  3 11  1  0
  3 12  1  0
  4 13  1  0
  6 14  1  0
  6 15  1  0
  7 16  1  0
  7 17  1  0
  8 18  1  0
  9 19  1  0
M  END
