
     RDKit          3D

 19 21  0  0  0  0  0  0  0  0999 V2000
    2.6106    0.5146   -0.8144 O   0  0  0  0  0  0  0  0  0  0  0  0
    1.5401    0.0634   -0.0545 C   0  0  0  0  0  0  0  0  0  0  0  0
    1.0616    0.8767    1.1066 C   0  0  0  0  0  0  0  0  0  0  0  0
   -0.1702    1.4006    0.7049 O   0  0  0  0  0  0  0  0  0  0  0  0
   -0.8056    0.3414    0.0809 C   0  0  0  0  0  0  0  0  0  0  0  0
   -2.1401    0.4697   -0.5323 C   0  0  0  0  0  0  0  0  0  0  0  0
   -1.9249   -0.3892    0.6810 C   0  0  0  0  0  0  0  0  0  0  0  0
    0.2506   -0.3236   -0.7404 C   0  0  0  0  0  0  0  0  0  0  0  0
    1.1356   -1.3696   -0.1656 C   0  0  0  0  0  0  0  0  0  0  0  0
    2.4526    0.4712   -1.7878 H   0  0  0  0  0  0  0  0  0  0  0  0
    0.9933    0.2863    2.0299 H   0  0  0  0  0  0  0  0  0  0  0  0
    1.7505    1.7322    1.3397 H   0  0  0  0  0  0  0  0  0  0  0  0
   -2.6920    1.4220   -0.4561 H   0  0  0  0  0  0  0  0  0  0  0  0
   -2.3040   -0.0265   -1.5258 H   0  0  0  0  0  0  0  0  0  0  0  0
   -2.0123   -1.4796    0.5131 H   0  0  0  0  0  0  0  0  0  0  0  0
   -2.4143   -0.0494    1.6013 H   0  0  0  0  0  0  0  0  0  0  0  0
    0.2041   -0.1317   -1.8285 H   0  0  0  0  0  0  0  0  0  0  0  0
    1.6799   -1.9807   -0.9212 H   0  0  0  0  0  0  0  0  0  0  0  0
    0.7847   -1.8279    0.7691 H   0  0  0  0  0  0  0  0  0  0  0  0
  1  2  1  0
  2  3  1  0
  3  4  1  0
  4  5  1  0
  5  6  1  0
  6  7  1  0
  5  8  1  0
  8  9  1  0
  8  2  1  0
  9  2  1  0
  7  5  1  0
  1 10  1  0
  3 11  1  0
  3 12  1  0
  6 13  1  0
  6 14  1  0
  7 15  1  0
  7 16  1  0
  8 17  1  0
  9 18  1  0
  9 19  1  0
M  END
