
     RDKit          3D

 21 23  0  0  0  0  0  0  0  0999 V2000
   -1.9588    0.7775    1.3153 O   0  0  0  0  0  0  0  0  0  0  0  0
   -1.1188    0.2930    0.4197 C   0  0  0  0  0  0  0  0  0  0  0  0
   -0.4950   -1.0697    0.5896 C   0  0  0  0  0  0  0  0  0  0  0  0
    0.4854   -1.0147   -0.6000 C   0  0  0  0  0  0  0  0  0  0  0  0
    1.7787   -0.5277    0.0046 C   0  0  0  0  0  0  0  0  0  0  0  0
    1.3160    0.8174    0.5871 C   0  0  0  0  0  0  0  0  0  0  0  0
    0.0323    1.1717   -0.0801 C   0  0  0  0  0  0  0  0  0  0  0  0
   -0.0217    0.2228   -1.2755 C   0  0  0  0  0  0  0  0  0  0  0  0
   -1.5265    0.2145   -1.0424 C   0  0  0  0  0  0  0  0  0  0  0  0
   -1.7922    0.4376    2.2128 H   0  0  0  0  0  0  0  0  0  0  0  0
   -1.2383   -1.8634    0.3565 H   0  0  0  0  0  0  0  0  0  0  0  0
    0.0301   -1.2091    1.5327 H   0  0  0  0  0  0  0  0  0  0  0  0
    0.5276   -1.9102   -1.1733 H   0  0  0  0  0  0  0  0  0  0  0  0
    2.5892   -0.4021   -0.7143 H   0  0  0  0  0  0  0  0  0  0  0  0
    2.0328   -1.2312    0.8307 H   0  0  0  0  0  0  0  0  0  0  0  0
    1.0927    0.6841    1.6839 H   0  0  0  0  0  0  0  0  0  0  0  0
    2.1023    1.5683    0.5180 H   0  0  0  0  0  0  0  0  0  0  0  0
   -0.2043    2.2013   -0.2695 H   0  0  0  0  0  0  0  0  0  0  0  0
    0.3584    0.5461   -2.2017 H   0  0  0  0  0  0  0  0  0  0  0  0
   -1.9322   -0.7840   -1.2597 H   0  0  0  0  0  0  0  0  0  0  0  0
   -2.0577    1.0778   -1.4343 H   0  0  0  0  0  0  0  0  0  0  0  0
  1  2  1  0
  2  3  1  0
  3  4  1  0
  4  5  1  0
  5  6  1  0
  6  7  1  0
  7  8  1  0
  8  9  1  0
  7  2  1  0
  9  2  1  0
  8  4  1  0
  1 10  1  0
  3 11  1  0
  3 12  1  0
  4 13  1  0
  5 14  1  0
  5 15  1  0
  6 16  1  0
  6 17  1  0
  7 18  1  0
  8 19  1  0
  9 20  1  0
  9 21  1  0
M  END
