
     RDKit          3D

 21 23  0  0  0  0  0  0  0  0999 V2000
   -0.5534   -1.8359   -1.5236 O   0  0  0  0  0  0  0  0  0  0  0  0
   -0.2066   -0.9009   -0.6044 C   0  0  0  0  0  0  0  0  0  0  0  0
   -0.2953    0.5746   -0.8852 C   0  0  0  0  0  0  0  0  0  0  0  0
   -1.4177    0.9867    0.0600 C   0  0  0  0  0  0  0  0  0  0  0  0
   -0.9835    0.2147    1.3137 C   0  0  0  0  0  0  0  0  0  0  0  0
   -0.3383   -1.0401    0.8437 C   0  0  0  0  0  0  0  0  0  0  0  0
    0.9934   -1.1157    0.2754 C   0  0  0  0  0  0  0  0  0  0  0  0
    1.8647    0.0390   -0.0535 C   0  0  0  0  0  0  0  0  0  0  0  0
    0.9664    1.1943   -0.3351 C   0  0  0  0  0  0  0  0  0  0  0  0
   -1.5074   -2.0424   -1.5713 H   0  0  0  0  0  0  0  0  0  0  0  0
   -0.4914    0.8308   -1.9221 H   0  0  0  0  0  0  0  0  0  0  0  0
   -2.3573    0.5648   -0.3400 H   0  0  0  0  0  0  0  0  0  0  0  0
   -1.4574    2.0628    0.2295 H   0  0  0  0  0  0  0  0  0  0  0  0
   -0.3506    0.8422    1.9731 H   0  0  0  0  0  0  0  0  0  0  0  0
   -1.9140    0.0150    1.8755 H   0  0  0  0  0  0  0  0  0  0  0  0
   -0.7278   -1.9653    1.3377 H   0  0  0  0  0  0  0  0  0  0  0  0
    1.4600   -2.1057    0.1675 H   0  0  0  0  0  0  0  0  0  0  0  0
    2.3952   -0.2061   -1.0202 H   0  0  0  0  0  0  0  0  0  0  0  0
    2.6694    0.2446    0.6713 H   0  0  0  0  0  0  0  0  0  0  0  0
    0.8104    1.7768    0.5807 H   0  0  0  0  0  0  0  0  0  0  0  0
    1.4411    1.8658   -1.0727 H   0  0  0  0  0  0  0  0  0  0  0  0
  1  2  1  0
  2  3  1  0
  3  4  1  0
  4  5  1  0
  5  6  1  0
  6  7  1  0
  7  8  1  0
  8  9  1  0
  6  2  1  0
  7  2  1  0
  9  3  1  0
  1 10  1  0
  3 11  1  0
  4 12  1  0
  4 13  1  0
  5 14  1  0
  5 15  1  0
  6 16  1  0
  7 17  1  0
  8 18  1  0
  8 19  1  0
  9 20  1  0
  9 21  1  0
M  END
