
     RDKit          3D

 17 20  0  0  0  0  0  0  0  0999 V2000
   -0.1028    2.1509    0.8885 O   0  0  0  0  0  0  0  0  0  0  0  0
   -0.1933    0.9767    0.2457 C   0  0  0  0  0  0  0  0  0  0  0  0
   -1.4768    0.6533   -0.4442 C   0  0  0  0  0  0  0  0  0  0  0  0
   -1.6040   -0.6628   -0.5822 C   0  0  0  0  0  0  0  0  0  0  0  0
   -0.4146   -1.3367    0.0029 C   0  0  0  0  0  0  0  0  0  0  0  0
    0.8801   -0.9317   -0.7397 C   0  0  0  0  0  0  0  0  0  0  0  0
    1.3507   -0.3780    0.5157 C   0  0  0  0  0  0  0  0  0  0  0  0
    0.0043   -0.2974    1.0247 C   0  0  0  0  0  0  0  0  0  0  0  0
    1.0033    0.5290   -0.5815 C   0  0  0  0  0  0  0  0  0  0  0  0
    0.5513    2.7591    0.5049 H   0  0  0  0  0  0  0  0  0  0  0  0
   -2.2096    1.3635   -0.7898 H   0  0  0  0  0  0  0  0  0  0  0  0
   -2.4291   -1.1724   -1.0411 H   0  0  0  0  0  0  0  0  0  0  0  0
   -0.4871   -2.3554    0.3091 H   0  0  0  0  0  0  0  0  0  0  0  0
    1.4284   -1.5986   -1.3444 H   0  0  0  0  0  0  0  0  0  0  0  0
    2.2823   -0.5027    0.9998 H   0  0  0  0  0  0  0  0  0  0  0  0
   -0.3032   -0.3796    2.0218 H   0  0  0  0  0  0  0  0  0  0  0  0
    1.7201    1.1828   -0.9901 H   0  0  0  0  0  0  0  0  0  0  0  0
  1  2  1  0
  2  3  1  0
  3  4  2  0
  4  5  1  0
  5  6  1  0
  6  7  1  0
  7  8  1  0
  7  9  1  0
  8  2  1  0
  9  2  1  0
  8  5  1  0
  9  6  1  0
  1 10  1  0
  3 11  1  0
  4 12  1  0
  5 13  1  0
  6 14  1  0
  7 15  1  0
  8 16  1  0
  9 17  1  0
M  END
