
     RDKit          3D

 19 22  0  0  0  0  0  0  0  0999 V2000
    2.0640    0.9688    0.8060 O   0  0  0  0  0  0  0  0  0  0  0  0
    0.9581    0.4552    0.2635 C   0  0  0  0  0  0  0  0  0  0  0  0
    1.0588   -0.9460   -0.3594 C   0  0  0  0  0  0  0  0  0  0  0  0
   -0.4429   -1.1124   -0.6496 C   0  0  0  0  0  0  0  0  0  0  0  0
   -0.9308   -0.9849    0.8026 C   0  0  0  0  0  0  0  0  0  0  0  0
   -0.3195    0.4130    1.0184 C   0  0  0  0  0  0  0  0  0  0  0  0
   -0.9875    1.1149   -0.1309 C   0  0  0  0  0  0  0  0  0  0  0  0
   -0.7774    0.1966   -1.2635 C   0  0  0  0  0  0  0  0  0  0  0  0
    0.2553    1.1761   -0.8424 C   0  0  0  0  0  0  0  0  0  0  0  0
    2.0064    1.1415    1.7952 H   0  0  0  0  0  0  0  0  0  0  0  0
    1.6362   -0.9379   -1.2768 H   0  0  0  0  0  0  0  0  0  0  0  0
    1.3523   -1.6998    0.3849 H   0  0  0  0  0  0  0  0  0  0  0  0
   -0.7099   -2.0050   -1.1391 H   0  0  0  0  0  0  0  0  0  0  0  0
   -2.0242   -0.9606    0.8634 H   0  0  0  0  0  0  0  0  0  0  0  0
   -0.4634   -1.7340    1.4507 H   0  0  0  0  0  0  0  0  0  0  0  0
   -0.3957    0.8209    1.9996 H   0  0  0  0  0  0  0  0  0  0  0  0
   -1.7668    1.8354   -0.0243 H   0  0  0  0  0  0  0  0  0  0  0  0
   -1.1938    0.3165   -2.2514 H   0  0  0  0  0  0  0  0  0  0  0  0
    0.6807    1.9416   -1.4470 H   0  0  0  0  0  0  0  0  0  0  0  0
  1  2  1  0
  2  3  1  0
  3  4  1  0
  4  5  1  0
  5  6  1  0
  6  7  1  0
  7  8  1  0
  8  9  1  0
  6  2  1  0
  9  7  1  0
  9  2  1  0
  8  4  1  0
  1 10  1  0
  3 11  1  0
  3 12  1  0
  4 13  1  0
  5 14  1  0
  5 15  1  0
  6 16  1  0
  7 17  1  0
  8 18  1  0
  9 19  1  0
M  END
