
     RDKit          3D

 23 24  0  0  0  0  0  0  0  0999 V2000
   -2.2896   -0.2302    1.0081 O   0  0  0  0  0  0  0  0  0  0  0  0
   -1.0592   -0.0453    0.4084 C   0  0  0  0  0  0  0  0  0  0  0  0
   -0.0135   -0.0794    1.5040 C   0  0  0  0  0  0  0  0  0  0  0  0
    1.3912   -0.0164    0.9664 C   0  0  0  0  0  0  0  0  0  0  0  0
    1.2809    0.1336   -0.5424 C   0  0  0  0  0  0  0  0  0  0  0  0
    0.4421    1.3349   -0.9175 C   0  0  0  0  0  0  0  0  0  0  0  0
   -0.9479    1.2733   -0.3243 C   0  0  0  0  0  0  0  0  0  0  0  0
    0.6454   -1.1580   -1.0448 C   0  0  0  0  0  0  0  0  0  0  0  0
   -0.8199   -1.1118   -0.6408 C   0  0  0  0  0  0  0  0  0  0  0  0
   -2.1461   -0.9298    1.7221 H   0  0  0  0  0  0  0  0  0  0  0  0
   -0.1419   -0.9195    2.1955 H   0  0  0  0  0  0  0  0  0  0  0  0
   -0.1637    0.8765    2.0876 H   0  0  0  0  0  0  0  0  0  0  0  0
    1.9992    0.7922    1.4159 H   0  0  0  0  0  0  0  0  0  0  0  0
    1.8711   -1.0041    1.1594 H   0  0  0  0  0  0  0  0  0  0  0  0
    2.2689    0.2603   -0.9894 H   0  0  0  0  0  0  0  0  0  0  0  0
    0.9291    2.2286   -0.5184 H   0  0  0  0  0  0  0  0  0  0  0  0
    0.3893    1.3516   -2.0252 H   0  0  0  0  0  0  0  0  0  0  0  0
   -1.6934    1.2149   -1.1674 H   0  0  0  0  0  0  0  0  0  0  0  0
   -1.2188    2.1400    0.2709 H   0  0  0  0  0  0  0  0  0  0  0  0
    1.0811   -2.0173   -0.4909 H   0  0  0  0  0  0  0  0  0  0  0  0
    0.7877   -1.2225   -2.1257 H   0  0  0  0  0  0  0  0  0  0  0  0
   -1.2238   -2.0866   -0.3781 H   0  0  0  0  0  0  0  0  0  0  0  0
   -1.3681   -0.7848   -1.5731 H   0  0  0  0  0  0  0  0  0  0  0  0
  1  2  1  0
  2  3  1  0
  3  4  1  0
  4  5  1  0
  5  6  1  0
  6  7  1  0
  5  8  1  0
  8  9  1  0
  7  2  1  0
  9  2  1  0
  1 10  1  0
  3 11  1  0
  3 12  1  0
  4 13  1  0
  4 14  1  0
  5 15  1  0
  6 16  1  0
  6 17  1  0
  7 18  1  0
  7 19  1  0
  8 20  1  0
  8 21  1  0
  9 22  1  0
  9 23  1  0
M  END
