
     RDKit          3D

 15 18  0  0  0  0  0  0  0  0999 V2000
    2.2390   -0.2975   -0.5735 O   0  0  0  0  0  0  0  0  0  0  0  0
    0.9562   -0.0675   -0.2669 C   0  0  0  0  0  0  0  0  0  0  0  0
    0.1594    1.0813   -0.8824 C   0  0  0  0  0  0  0  0  0  0  0  0
   -0.9990    0.4434   -1.3729 O   0  0  0  0  0  0  0  0  0  0  0  0
   -1.3414   -0.2753   -0.2011 C   0  0  0  0  0  0  0  0  0  0  0  0
   -0.9177    0.6335    0.9017 C   0  0  0  0  0  0  0  0  0  0  0  0
   -0.4098    1.7621    0.2133 O   0  0  0  0  0  0  0  0  0  0  0  0
    0.3317   -0.1666    1.0555 C   0  0  0  0  0  0  0  0  0  0  0  0
   -0.0868   -1.0598   -0.0060 C   0  0  0  0  0  0  0  0  0  0  0  0
    2.4694   -1.2131   -0.8808 H   0  0  0  0  0  0  0  0  0  0  0  0
    0.6829    1.6830   -1.5779 H   0  0  0  0  0  0  0  0  0  0  0  0
   -2.2913   -0.7548   -0.1803 H   0  0  0  0  0  0  0  0  0  0  0  0
   -1.5545    0.8141    1.7356 H   0  0  0  0  0  0  0  0  0  0  0  0
    0.7700   -0.4706    1.9716 H   0  0  0  0  0  0  0  0  0  0  0  0
   -0.0081   -2.1122    0.0642 H   0  0  0  0  0  0  0  0  0  0  0  0
  1  2  1  0
  2  3  1  0
  3  4  1  0
  4  5  1  0
  5  6  1  0
  6  7  1  0
  6  8  1  0
  8  9  1  0
  8  2  1  0
  9  2  1  0
  7  3  1  0
  9  5  1  0
  1 10  1  0
  3 11  1  0
  5 12  1  0
  6 13  1  0
  8 14  1  0
  9 15  1  0
M  END
