
     RDKit          3D

 16 17  0  0  0  0  0  0  0  0999 V2000
    1.9122   -0.5702   -0.6274 O   0  0  0  0  0  0  0  0  0  0  0  0
    0.9196   -0.1121    0.2009 C   0  0  0  0  0  0  0  0  0  0  0  0
    0.2266   -1.0673    1.1573 C   0  0  0  0  0  0  0  0  0  0  0  0
   -0.8345   -1.5424    0.3878 O   0  0  0  0  0  0  0  0  0  0  0  0
   -1.3941   -0.3499   -0.1064 C   0  0  0  0  0  0  0  0  0  0  0  0
   -0.2613    0.5086   -0.5637 C   0  0  0  0  0  0  0  0  0  0  0  0
   -0.1151    0.7365   -1.9188 O   0  0  0  0  0  0  0  0  0  0  0  0
    0.5684    1.3051    0.3542 C   0  0  0  0  0  0  0  0  0  0  0  0
    1.5031   -1.2731   -1.2124 H   0  0  0  0  0  0  0  0  0  0  0  0
    0.9173   -1.8419    1.4890 H   0  0  0  0  0  0  0  0  0  0  0  0
   -0.2241   -0.4975    2.0016 H   0  0  0  0  0  0  0  0  0  0  0  0
   -1.9735    0.1352    0.6882 H   0  0  0  0  0  0  0  0  0  0  0  0
   -1.9911   -0.6395   -0.9924 H   0  0  0  0  0  0  0  0  0  0  0  0
   -0.6721    1.5349   -2.1344 H   0  0  0  0  0  0  0  0  0  0  0  0
    1.2391    2.0417   -0.0869 H   0  0  0  0  0  0  0  0  0  0  0  0
    0.1797    1.6320    1.3635 H   0  0  0  0  0  0  0  0  0  0  0  0
  1  2  1  0
  2  3  1  0
  3  4  1  0
  4  5  1  0
  5  6  1  0
  6  7  1  0
  6  8  1  0
  6  2  1  0
  8  2  1  0
  1  9  1  0
  3 10  1  0
  3 11  1  0
  5 12  1  0
  5 13  1  0
  7 14  1  0
  8 15  1  0
  8 16  1  0
M  END
