
     RDKit          3D

 19 21  0  0  0  0  0  0  0  0999 V2000
    1.8793    1.3099    0.0876 O   0  0  0  0  0  0  0  0  0  0  0  0
    0.8282    0.5326    0.0971 C   0  0  0  0  0  0  0  0  0  0  0  0
    0.2864    0.0871   -1.2780 C   0  0  0  0  0  0  0  0  0  0  0  0
   -0.9693   -0.5587   -0.6577 C   0  0  0  0  0  0  0  0  0  0  0  0
   -1.5161    0.7809   -0.1192 C   0  0  0  0  0  0  0  0  0  0  0  0
   -0.3703    0.8976    0.9091 C   0  0  0  0  0  0  0  0  0  0  0  0
   -0.7430   -0.2609    1.6435 O   0  0  0  0  0  0  0  0  0  0  0  0
   -0.4729   -1.1889    0.5997 C   0  0  0  0  0  0  0  0  0  0  0  0
    1.0504   -0.9172    0.5866 C   0  0  0  0  0  0  0  0  0  0  0  0
    2.7143    0.8229   -0.1030 H   0  0  0  0  0  0  0  0  0  0  0  0
    0.8763   -0.7123   -1.7103 H   0  0  0  0  0  0  0  0  0  0  0  0
    0.0445    0.9283   -1.9135 H   0  0  0  0  0  0  0  0  0  0  0  0
   -1.5897   -1.0790   -1.3067 H   0  0  0  0  0  0  0  0  0  0  0  0
   -1.4389    1.5654   -0.8710 H   0  0  0  0  0  0  0  0  0  0  0  0
   -2.4826    0.6626    0.3593 H   0  0  0  0  0  0  0  0  0  0  0  0
   -0.3609    1.7961    1.4590 H   0  0  0  0  0  0  0  0  0  0  0  0
   -0.7353   -2.1879    0.8101 H   0  0  0  0  0  0  0  0  0  0  0  0
    1.4721   -0.9494    1.5824 H   0  0  0  0  0  0  0  0  0  0  0  0
    1.5276   -1.5292   -0.1748 H   0  0  0  0  0  0  0  0  0  0  0  0
  1  2  1  0
  2  3  1  0
  3  4  1  0
  4  5  1  0
  5  6  1  0
  6  7  1  0
  7  8  1  0
  8  9  1  0
  6  2  1  0
  9  2  1  0
  8  4  1  0
  1 10  1  0
  3 11  1  0
  3 12  1  0
  4 13  1  0
  5 14  1  0
  5 15  1  0
  6 16  1  0
  8 17  1  0
  9 18  1  0
  9 19  1  0
M  END
