
     RDKit          3D

 19 21  0  0  0  0  0  0  0  0999 V2000
    1.3213   -0.6545   -1.4855 O   0  0  0  0  0  0  0  0  0  0  0  0
    0.8715   -0.1226   -0.3709 C   0  0  0  0  0  0  0  0  0  0  0  0
    1.7885    0.5508    0.5946 C   0  0  0  0  0  0  0  0  0  0  0  0
    0.9322    0.9788    1.5379 C   0  0  0  0  0  0  0  0  0  0  0  0
   -0.3745    0.5484    1.0471 C   0  0  0  0  0  0  0  0  0  0  0  0
   -0.2881    0.8812   -0.4233 C   0  0  0  0  0  0  0  0  0  0  0  0
   -1.4037    0.1044   -1.0509 C   0  0  0  0  0  0  0  0  0  0  0  0
   -1.2555   -1.2134   -0.2623 C   0  0  0  0  0  0  0  0  0  0  0  0
   -0.0484   -0.8701    0.5549 C   0  0  0  0  0  0  0  0  0  0  0  0
    2.2912   -0.4513   -1.6594 H   0  0  0  0  0  0  0  0  0  0  0  0
    2.8659    0.6740    0.5627 H   0  0  0  0  0  0  0  0  0  0  0  0
    1.1160    1.5162    2.4567 H   0  0  0  0  0  0  0  0  0  0  0  0
   -1.2670    0.6993    1.5790 H   0  0  0  0  0  0  0  0  0  0  0  0
   -0.0701    1.8712   -0.7285 H   0  0  0  0  0  0  0  0  0  0  0  0
   -2.3948    0.5357   -0.8776 H   0  0  0  0  0  0  0  0  0  0  0  0
   -1.1769   -0.0825   -2.1216 H   0  0  0  0  0  0  0  0  0  0  0  0
   -2.1679   -1.3554    0.3522 H   0  0  0  0  0  0  0  0  0  0  0  0
   -1.0847   -2.0558   -0.9673 H   0  0  0  0  0  0  0  0  0  0  0  0
    0.3452   -1.5544    1.2622 H   0  0  0  0  0  0  0  0  0  0  0  0
  1  2  1  0
  2  3  1  0
  3  4  2  0
  4  5  1  0
  5  6  1  0
  6  7  1  0
  7  8  1  0
  8  9  1  0
  6  2  1  0
  9  2  1  0
  9  5  1  0
  1 10  1  0
  3 11  1  0
  4 12  1  0
  5 13  1  0
  6 14  1  0
  7 15  1  0
  7 16  1  0
  8 17  1  0
  8 18  1  0
  9 19  1  0
M  END
