
     RDKit          3D

 19 21  0  0  0  0  0  0  0  0999 V2000
    2.3912    1.2196   -0.0407 O   0  0  0  0  0  0  0  0  0  0  0  0
    1.2806    0.4972    0.2584 C   0  0  0  0  0  0  0  0  0  0  0  0
    1.3146   -0.8634    0.8503 C   0  0  0  0  0  0  0  0  0  0  0  0
    0.9709   -0.7695   -0.5965 C   0  0  0  0  0  0  0  0  0  0  0  0
   -0.2465   -0.0558   -1.0521 C   0  0  0  0  0  0  0  0  0  0  0  0
   -1.5823   -0.6821   -0.6997 C   0  0  0  0  0  0  0  0  0  0  0  0
   -1.8222   -0.2894    0.7031 C   0  0  0  0  0  0  0  0  0  0  0  0
   -1.0022    0.6675    1.1136 C   0  0  0  0  0  0  0  0  0  0  0  0
   -0.1090    1.0194   -0.0032 C   0  0  0  0  0  0  0  0  0  0  0  0
    2.2003    1.9192   -0.7067 H   0  0  0  0  0  0  0  0  0  0  0  0
    0.4572   -1.1365    1.5230 H   0  0  0  0  0  0  0  0  0  0  0  0
    2.2845   -1.2300    1.1667 H   0  0  0  0  0  0  0  0  0  0  0  0
    1.7697   -1.0324   -1.3449 H   0  0  0  0  0  0  0  0  0  0  0  0
   -0.2095    0.3955   -2.0607 H   0  0  0  0  0  0  0  0  0  0  0  0
   -2.3735   -0.2566   -1.3434 H   0  0  0  0  0  0  0  0  0  0  0  0
   -1.5299   -1.7934   -0.8241 H   0  0  0  0  0  0  0  0  0  0  0  0
   -2.6109   -0.7669    1.3109 H   0  0  0  0  0  0  0  0  0  0  0  0
   -1.0144    1.1035    2.1297 H   0  0  0  0  0  0  0  0  0  0  0  0
   -0.1685    2.0543   -0.3837 H   0  0  0  0  0  0  0  0  0  0  0  0
  1  2  1  0
  2  3  1  0
  3  4  1  0
  4  5  1  0
  5  6  1  0
  6  7  1  0
  7  8  2  0
  8  9  1  0
  4  2  1  0
  9  5  1  0
  9  2  1  0
  1 10  1  0
  3 11  1  0
  3 12  1  0
  4 13  1  0
  5 14  1  0
  6 15  1  0
  6 16  1  0
  7 17  1  0
  8 18  1  0
  9 19  1  0
M  END
