
     RDKit          3D

 19 21  0  0  0  0  0  0  0  0999 V2000
   -0.3251   -1.3833    1.0307 O   0  0  0  0  0  0  0  0  0  0  0  0
   -0.3547   -1.0107   -0.3215 C   0  0  0  0  0  0  0  0  0  0  0  0
   -1.7124   -0.3992   -0.4723 C   0  0  0  0  0  0  0  0  0  0  0  0
   -1.5107    0.9938    0.2324 C   0  0  0  0  0  0  0  0  0  0  0  0
   -0.0776    0.9253    0.6014 C   0  0  0  0  0  0  0  0  0  0  0  0
    1.1488    0.9469    1.0214 C   0  0  0  0  0  0  0  0  0  0  0  0
    2.0486    0.0503    0.1872 C   0  0  0  0  0  0  0  0  0  0  0  0
    1.0175   -0.7679   -0.6445 C   0  0  0  0  0  0  0  0  0  0  0  0
    0.2199    0.3216   -0.8416 C   0  0  0  0  0  0  0  0  0  0  0  0
   -0.2766   -2.3641    1.0311 H   0  0  0  0  0  0  0  0  0  0  0  0
   -2.4699   -0.9888   -0.0041 H   0  0  0  0  0  0  0  0  0  0  0  0
   -1.9888   -0.2044   -1.5326 H   0  0  0  0  0  0  0  0  0  0  0  0
   -1.6416    1.7792   -0.5241 H   0  0  0  0  0  0  0  0  0  0  0  0
   -2.1776    1.0456    1.1017 H   0  0  0  0  0  0  0  0  0  0  0  0
    1.4542    1.5479    1.8745 H   0  0  0  0  0  0  0  0  0  0  0  0
    2.7045    0.6236   -0.4608 H   0  0  0  0  0  0  0  0  0  0  0  0
    2.5180   -0.6561    0.8650 H   0  0  0  0  0  0  0  0  0  0  0  0
    1.5293   -1.3012   -1.4635 H   0  0  0  0  0  0  0  0  0  0  0  0
   -0.1058    0.8418   -1.6803 H   0  0  0  0  0  0  0  0  0  0  0  0
  1  2  1  0
  2  3  1  0
  3  4  1  0
  4  5  1  0
  5  6  2  0
  6  7  1  0
  7  8  1  0
  8  9  1  0
  8  2  1  0
  9  2  1  0
  9  5  1  0
  1 10  1  0
  3 11  1  0
  3 12  1  0
  4 13  1  0
  4 14  1  0
  6 15  1  0
  7 16  1  0
  7 17  1  0
  8 18  1  0
  9 19  1  0
M  END
