
     RDKit          3D

 14 17  0  0  0  0  0  0  0  0999 V2000
    1.8837   -0.1928    1.4080 O   0  0  0  0  0  0  0  0  0  0  0  0
    0.8391    0.0729    0.6447 C   0  0  0  0  0  0  0  0  0  0  0  0
    0.5163    1.1519   -0.2200 C   0  0  0  0  0  0  0  0  0  0  0  0
   -0.9315    0.9008   -0.0976 C   0  0  0  0  0  0  0  0  0  0  0  0
   -0.5646   -0.3063    0.8363 C   0  0  0  0  0  0  0  0  0  0  0  0
   -0.7787   -0.4344   -0.5566 C   0  0  0  0  0  0  0  0  0  0  0  0
   -1.5461   -1.2266   -1.2869 O   0  0  0  0  0  0  0  0  0  0  0  0
    0.6751   -0.1684   -0.7911 C   0  0  0  0  0  0  0  0  0  0  0  0
    2.6396   -0.5625    0.8707 H   0  0  0  0  0  0  0  0  0  0  0  0
    0.9956    2.0625   -0.4619 H   0  0  0  0  0  0  0  0  0  0  0  0
   -1.6913    1.4956    0.2959 H   0  0  0  0  0  0  0  0  0  0  0  0
   -1.1148   -0.4685    1.7115 H   0  0  0  0  0  0  0  0  0  0  0  0
   -2.2355   -1.7473   -0.8522 H   0  0  0  0  0  0  0  0  0  0  0  0
    1.3130   -0.5768   -1.5007 H   0  0  0  0  0  0  0  0  0  0  0  0
  1  2  1  0
  2  3  1  0
  3  4  1  0
  4  5  1  0
  5  6  1  0
  6  7  1  0
  6  8  1  0
  5  2  1  0
  8  2  1  0
  8  3  1  0
  6  4  1  0
  1  9  1  0
  3 10  1  0
  4 11  1  0
  5 12  1  0
  7 13  1  0
  8 14  1  0
M  END
