
     RDKit          3D

 17 19  0  0  0  0  0  0  0  0999 V2000
   -1.9531    0.2796   -1.3946 O   0  0  0  0  0  0  0  0  0  0  0  0
   -1.0501    0.2768   -0.3630 C   0  0  0  0  0  0  0  0  0  0  0  0
   -1.1816   -0.5505    0.8396 C   0  0  0  0  0  0  0  0  0  0  0  0
   -0.2875   -1.0744   -0.2106 C   0  0  0  0  0  0  0  0  0  0  0  0
    1.1329   -0.6446   -0.3583 C   0  0  0  0  0  0  0  0  0  0  0  0
    1.6238    0.1250    0.8629 C   0  0  0  0  0  0  0  0  0  0  0  0
    0.7771    1.2248    0.8286 O   0  0  0  0  0  0  0  0  0  0  0  0
    0.1407    1.2216   -0.4090 C   0  0  0  0  0  0  0  0  0  0  0  0
    0.9969    0.4571   -1.2412 O   0  0  0  0  0  0  0  0  0  0  0  0
   -2.6545    0.9457   -1.3413 H   0  0  0  0  0  0  0  0  0  0  0  0
   -0.7693   -0.0921    1.7845 H   0  0  0  0  0  0  0  0  0  0  0  0
   -2.1396   -1.0885    0.9663 H   0  0  0  0  0  0  0  0  0  0  0  0
   -0.6143   -1.9062   -0.8299 H   0  0  0  0  0  0  0  0  0  0  0  0
    1.8277   -1.3901   -0.7153 H   0  0  0  0  0  0  0  0  0  0  0  0
    1.5873   -0.4513    1.7801 H   0  0  0  0  0  0  0  0  0  0  0  0
    2.6459    0.4718    0.6130 H   0  0  0  0  0  0  0  0  0  0  0  0
   -0.0824    2.1952   -0.8117 H   0  0  0  0  0  0  0  0  0  0  0  0
  1  2  1  0
  2  3  1  0
  3  4  1  0
  4  5  1  0
  5  6  1  0
  6  7  1  0
  7  8  1  0
  8  9  1  0
  4  2  1  0
  9  5  1  0
  8  2  1  0
  1 10  1  0
  3 11  1  0
  3 12  1  0
  4 13  1  0
  5 14  1  0
  6 15  1  0
  6 16  1  0
  8 17  1  0
M  END
