
     RDKit          3D

 19 21  0  0  0  0  0  0  0  0999 V2000
    2.2362    0.3939    0.8189 O   0  0  0  0  0  0  0  0  0  0  0  0
    0.9786    0.2480    0.3154 C   0  0  0  0  0  0  0  0  0  0  0  0
    0.8460   -0.6046   -0.9385 C   0  0  0  0  0  0  0  0  0  0  0  0
   -0.4744   -1.2803   -0.6763 C   0  0  0  0  0  0  0  0  0  0  0  0
   -1.5264   -0.2125   -0.5718 C   0  0  0  0  0  0  0  0  0  0  0  0
   -1.0614    0.5546    0.6488 C   0  0  0  0  0  0  0  0  0  0  0  0
    0.0909    1.4715    0.3145 C   0  0  0  0  0  0  0  0  0  0  0  0
   -0.0335   -0.3986    1.2320 C   0  0  0  0  0  0  0  0  0  0  0  0
   -0.3172   -1.6373    0.6831 O   0  0  0  0  0  0  0  0  0  0  0  0
    2.9015    0.5488    0.1342 H   0  0  0  0  0  0  0  0  0  0  0  0
    0.8185   -0.0229   -1.8562 H   0  0  0  0  0  0  0  0  0  0  0  0
    1.6270   -1.3604   -0.9601 H   0  0  0  0  0  0  0  0  0  0  0  0
   -0.7085   -2.1108   -1.3178 H   0  0  0  0  0  0  0  0  0  0  0  0
   -1.5264    0.4698   -1.4614 H   0  0  0  0  0  0  0  0  0  0  0  0
   -2.5051   -0.6725   -0.4449 H   0  0  0  0  0  0  0  0  0  0  0  0
   -1.8213    0.9277    1.3200 H   0  0  0  0  0  0  0  0  0  0  0  0
    0.0159    1.8936   -0.6866 H   0  0  0  0  0  0  0  0  0  0  0  0
    0.3161    2.1293    1.1513 H   0  0  0  0  0  0  0  0  0  0  0  0
    0.1434   -0.3374    2.2955 H   0  0  0  0  0  0  0  0  0  0  0  0
  1  2  1  0
  2  3  1  0
  3  4  1  0
  4  5  1  0
  5  6  1  0
  6  7  1  0
  6  8  1  0
  8  9  1  0
  7  2  1  0
  8  2  1  0
  9  4  1  0
  1 10  1  0
  3 11  1  0
  3 12  1  0
  4 13  1  0
  5 14  1  0
  5 15  1  0
  6 16  1  0
  7 17  1  0
  7 18  1  0
  8 19  1  0
M  END
