
     RDKit          3D

 19 21  0  0  0  0  0  0  0  0999 V2000
   -0.2694    2.1025   -0.6437 O   0  0  0  0  0  0  0  0  0  0  0  0
    0.1172    0.8624   -0.3165 C   0  0  0  0  0  0  0  0  0  0  0  0
    1.4624    0.6317    0.2957 C   0  0  0  0  0  0  0  0  0  0  0  0
    1.3253   -0.8681    0.6249 C   0  0  0  0  0  0  0  0  0  0  0  0
    0.0248   -1.1518   -0.0599 C   0  0  0  0  0  0  0  0  0  0  0  0
   -0.0706   -0.2645   -1.2706 C   0  0  0  0  0  0  0  0  0  0  0  0
   -1.5401   -0.1557   -0.9535 C   0  0  0  0  0  0  0  0  0  0  0  0
   -0.8684   -0.0422    0.3938 C   0  0  0  0  0  0  0  0  0  0  0  0
   -1.4027    0.1427    1.5078 O   0  0  0  0  0  0  0  0  0  0  0  0
   -0.4470    2.6233    0.2038 H   0  0  0  0  0  0  0  0  0  0  0  0
    1.6582    1.2277    1.1863 H   0  0  0  0  0  0  0  0  0  0  0  0
    2.2278    0.7260   -0.5030 H   0  0  0  0  0  0  0  0  0  0  0  0
    1.1647   -0.9831    1.7136 H   0  0  0  0  0  0  0  0  0  0  0  0
    2.1757   -1.4442    0.2680 H   0  0  0  0  0  0  0  0  0  0  0  0
   -0.3464   -2.1509   -0.1122 H   0  0  0  0  0  0  0  0  0  0  0  0
    0.3449   -0.4115   -2.1675 H   0  0  0  0  0  0  0  0  0  0  0  0
   -2.1366   -1.0658   -1.0563 H   0  0  0  0  0  0  0  0  0  0  0  0
   -2.0141    0.7891   -1.3135 H   0  0  0  0  0  0  0  0  0  0  0  0
   -1.4054   -0.5677    2.2029 H   0  0  0  0  0  0  0  0  0  0  0  0
  1  2  1  0
  2  3  1  0
  3  4  1  0
  4  5  1  0
  5  6  1  0
  6  7  1  0
  7  8  1  0
  8  9  1  0
  6  2  1  0
  8  2  1  0
  8  5  1  0
  1 10  1  0
  3 11  1  0
  3 12  1  0
  4 13  1  0
  4 14  1  0
  5 15  1  0
  6 16  1  0
  7 17  1  0
  7 18  1  0
  9 19  1  0
M  END
