
     RDKit          3D

 21 22  0  0  0  0  0  0  0  0999 V2000
   -1.4713    1.2198   -1.1825 O   0  0  0  0  0  0  0  0  0  0  0  0
   -0.6601    0.5874   -0.2414 C   0  0  0  0  0  0  0  0  0  0  0  0
    0.4129    1.4712    0.2509 C   0  0  0  0  0  0  0  0  0  0  0  0
    1.7808    0.9793    0.0799 C   0  0  0  0  0  0  0  0  0  0  0  0
    2.0933   -0.2874   -0.1350 C   0  0  0  0  0  0  0  0  0  0  0  0
    1.0239   -1.2903   -0.2123 C   0  0  0  0  0  0  0  0  0  0  0  0
   -0.2955   -0.7854   -0.6366 C   0  0  0  0  0  0  0  0  0  0  0  0
   -1.4561   -1.3101    0.2000 C   0  0  0  0  0  0  0  0  0  0  0  0
   -1.5091    0.0556    0.8829 C   0  0  0  0  0  0  0  0  0  0  0  0
   -1.0057    2.0270   -1.5716 H   0  0  0  0  0  0  0  0  0  0  0  0
    0.2829    1.6997    1.3499 H   0  0  0  0  0  0  0  0  0  0  0  0
    0.3592    2.4798   -0.2374 H   0  0  0  0  0  0  0  0  0  0  0  0
    2.5987    1.7206    0.1357 H   0  0  0  0  0  0  0  0  0  0  0  0
    3.1506   -0.5327   -0.2470 H   0  0  0  0  0  0  0  0  0  0  0  0
    0.9590   -1.7838    0.8015 H   0  0  0  0  0  0  0  0  0  0  0  0
    1.3816   -2.1019   -0.8976 H   0  0  0  0  0  0  0  0  0  0  0  0
   -0.4996   -1.0005   -1.7063 H   0  0  0  0  0  0  0  0  0  0  0  0
   -1.1547   -2.0984    0.9370 H   0  0  0  0  0  0  0  0  0  0  0  0
   -2.3590   -1.5780   -0.3685 H   0  0  0  0  0  0  0  0  0  0  0  0
   -1.0776    0.0876    1.8860 H   0  0  0  0  0  0  0  0  0  0  0  0
   -2.5543    0.4406    0.9123 H   0  0  0  0  0  0  0  0  0  0  0  0
  1  2  1  0
  2  3  1  0
  3  4  1  0
  4  5  2  0
  5  6  1  0
  6  7  1  0
  7  8  1  0
  8  9  1  0
  7  2  1  0
  9  2  1  0
  1 10  1  0
  3 11  1  0
  3 12  1  0
  4 13  1  0
  5 14  1  0
  6 15  1  0
  6 16  1  0
  7 17  1  0
  8 18  1  0
  8 19  1  0
  9 20  1  0
  9 21  1  0
M  END
