
     RDKit          3D

 20 21  0  0  0  0  0  0  0  0999 V2000
   -0.1849   -1.1812    1.7495 O   0  0  0  0  0  0  0  0  0  0  0  0
   -0.2435   -0.6117    0.4932 C   0  0  0  0  0  0  0  0  0  0  0  0
    0.8705   -1.0473   -0.4382 C   0  0  0  0  0  0  0  0  0  0  0  0
    1.8670    0.1041   -0.2293 C   0  0  0  0  0  0  0  0  0  0  0  0
    0.8923    1.2608   -0.4820 C   0  0  0  0  0  0  0  0  0  0  0  0
   -0.1947    0.9102    0.5216 C   0  0  0  0  0  0  0  0  0  0  0  0
   -1.5910    0.9245   -0.0080 C   0  0  0  0  0  0  0  0  0  0  0  0
   -1.5937   -0.5886   -0.1674 C   0  0  0  0  0  0  0  0  0  0  0  0
   -0.3319   -2.1591    1.6420 H   0  0  0  0  0  0  0  0  0  0  0  0
    0.5636   -0.9609   -1.5101 H   0  0  0  0  0  0  0  0  0  0  0  0
    1.2980   -2.0152   -0.1935 H   0  0  0  0  0  0  0  0  0  0  0  0
    2.6856    0.0801   -0.9391 H   0  0  0  0  0  0  0  0  0  0  0  0
    2.1483    0.0721    0.8322 H   0  0  0  0  0  0  0  0  0  0  0  0
    1.3368    2.2317   -0.3311 H   0  0  0  0  0  0  0  0  0  0  0  0
    0.4792    1.0755   -1.4954 H   0  0  0  0  0  0  0  0  0  0  0  0
   -0.0431    1.3286    1.5344 H   0  0  0  0  0  0  0  0  0  0  0  0
   -2.3641    1.2057    0.7541 H   0  0  0  0  0  0  0  0  0  0  0  0
   -1.6806    1.4268   -0.9745 H   0  0  0  0  0  0  0  0  0  0  0  0
   -2.3287   -1.1219    0.4667 H   0  0  0  0  0  0  0  0  0  0  0  0
   -1.5850   -0.9341   -1.2250 H   0  0  0  0  0  0  0  0  0  0  0  0
  1  2  1  0
  2  3  1  0
  3  4  1  0
  4  5  1  0
  5  6  1  0
  6  7  1  0
  7  8  1  0
  6  2  1  0
  8  2  1  0
  1  9  1  0
  3 10  1  0
  3 11  1  0
  4 12  1  0
  4 13  1  0
  5 14  1  0
  5 15  1  0
  6 16  1  0
  7 17  1  0
  7 18  1  0
  8 19  1  0
  8 20  1  0
M  END
