
     RDKit          3D

 17 19  0  0  0  0  0  0  0  0999 V2000
   -2.1492    0.2388    1.5028 O   0  0  0  0  0  0  0  0  0  0  0  0
   -1.3178   -0.0325    0.4294 C   0  0  0  0  0  0  0  0  0  0  0  0
   -1.1691    0.9646   -0.6614 C   0  0  0  0  0  0  0  0  0  0  0  0
    0.0932    1.0234   -1.0698 C   0  0  0  0  0  0  0  0  0  0  0  0
    0.9706    0.1025   -0.3408 C   0  0  0  0  0  0  0  0  0  0  0  0
    2.3291    0.2014   -0.1370 C   0  0  0  0  0  0  0  0  0  0  0  0
    1.7632   -0.8090   -1.0295 O   0  0  0  0  0  0  0  0  0  0  0  0
    0.0489   -0.5302    0.6759 C   0  0  0  0  0  0  0  0  0  0  0  0
   -1.0098   -1.4356    0.0865 C   0  0  0  0  0  0  0  0  0  0  0  0
   -1.9912    1.1153    1.9148 H   0  0  0  0  0  0  0  0  0  0  0  0
   -1.9989    1.5501   -1.0503 H   0  0  0  0  0  0  0  0  0  0  0  0
    0.4352    1.6830   -1.8584 H   0  0  0  0  0  0  0  0  0  0  0  0
    3.0291    0.8303   -0.7116 H   0  0  0  0  0  0  0  0  0  0  0  0
    2.8316   -0.2488    0.7676 H   0  0  0  0  0  0  0  0  0  0  0  0
    0.4550   -0.7131    1.6704 H   0  0  0  0  0  0  0  0  0  0  0  0
   -0.8830   -1.7388   -0.9760 H   0  0  0  0  0  0  0  0  0  0  0  0
   -1.4370   -2.2015    0.7874 H   0  0  0  0  0  0  0  0  0  0  0  0
  1  2  1  0
  2  3  1  0
  3  4  2  0
  4  5  1  0
  5  6  1  0
  6  7  1  0
  5  8  1  0
  8  9  1  0
  8  2  1  0
  9  2  1  0
  7  5  1  0
  1 10  1  0
  3 11  1  0
  4 12  1  0
  6 13  1  0
  6 14  1  0
  8 15  1  0
  9 16  1  0
  9 17  1  0
M  END
