
     RDKit          3D

 17 19  0  0  0  0  0  0  0  0999 V2000
    0.0494    0.9021    2.0284 O   0  0  0  0  0  0  0  0  0  0  0  0
   -0.1174    0.2422    0.9753 C   0  0  0  0  0  0  0  0  0  0  0  0
   -1.3092   -0.5578    0.5470 C   0  0  0  0  0  0  0  0  0  0  0  0
   -0.3389   -0.7279   -0.5936 C   0  0  0  0  0  0  0  0  0  0  0  0
   -0.5015   -1.3775   -1.6540 O   0  0  0  0  0  0  0  0  0  0  0  0
   -0.0564    0.7432   -0.4453 C   0  0  0  0  0  0  0  0  0  0  0  0
    1.3904    0.8469   -0.7124 C   0  0  0  0  0  0  0  0  0  0  0  0
    1.8882   -0.3188   -0.0766 O   0  0  0  0  0  0  0  0  0  0  0  0
    0.7365   -0.8771    0.4398 C   0  0  0  0  0  0  0  0  0  0  0  0
   -0.0866    1.8794    1.9639 H   0  0  0  0  0  0  0  0  0  0  0  0
   -1.5589   -1.4473    1.1230 H   0  0  0  0  0  0  0  0  0  0  0  0
   -2.1477    0.1187    0.2668 H   0  0  0  0  0  0  0  0  0  0  0  0
   -1.4476   -1.5119   -1.9143 H   0  0  0  0  0  0  0  0  0  0  0  0
   -0.7586    1.4558   -0.7850 H   0  0  0  0  0  0  0  0  0  0  0  0
    1.8814    1.7520   -0.3651 H   0  0  0  0  0  0  0  0  0  0  0  0
    1.5782    0.6679   -1.8009 H   0  0  0  0  0  0  0  0  0  0  0  0
    0.7985   -1.7899    1.0029 H   0  0  0  0  0  0  0  0  0  0  0  0
  1  2  1  0
  2  3  1  0
  3  4  1  0
  4  5  1  0
  4  6  1  0
  6  7  1  0
  7  8  1  0
  8  9  1  0
  6  2  1  0
  9  2  1  0
  9  4  1  0
  1 10  1  0
  3 11  1  0
  3 12  1  0
  5 13  1  0
  6 14  1  0
  7 15  1  0
  7 16  1  0
  9 17  1  0
M  END
