
     RDKit          3D

 16 18  0  0  0  0  0  0  0  0999 V2000
    2.0784   -1.1034    0.0116 O   0  0  0  0  0  0  0  0  0  0  0  0
    1.1571   -0.1042    0.1128 C   0  0  0  0  0  0  0  0  0  0  0  0
    1.1288    1.0795   -0.7721 C   0  0  0  0  0  0  0  0  0  0  0  0
    0.0953    0.0269   -0.9212 C   0  0  0  0  0  0  0  0  0  0  0  0
   -0.9427   -0.0017    0.1490 C   0  0  0  0  0  0  0  0  0  0  0  0
   -2.2131   -0.4662   -0.0007 C   0  0  0  0  0  0  0  0  0  0  0  0
   -1.8818    0.9800    0.1755 O   0  0  0  0  0  0  0  0  0  0  0  0
    0.0901   -0.1937    1.1858 C   0  0  0  0  0  0  0  0  0  0  0  0
    3.0006   -0.8579    0.2316 H   0  0  0  0  0  0  0  0  0  0  0  0
    0.8310    2.0346   -0.2601 H   0  0  0  0  0  0  0  0  0  0  0  0
    1.8379    1.1922   -1.5859 H   0  0  0  0  0  0  0  0  0  0  0  0
    0.0447   -0.6369   -1.7967 H   0  0  0  0  0  0  0  0  0  0  0  0
   -2.8961   -0.7135    0.8560 H   0  0  0  0  0  0  0  0  0  0  0  0
   -2.6808   -0.6598   -0.9971 H   0  0  0  0  0  0  0  0  0  0  0  0
    0.1226   -1.1806    1.6768 H   0  0  0  0  0  0  0  0  0  0  0  0
    0.2280    0.6049    1.9347 H   0  0  0  0  0  0  0  0  0  0  0  0
  1  2  1  0
  2  3  1  0
  3  4  1  0
  4  5  1  0
  5  6  1  0
  6  7  1  0
  5  8  1  0
  4  2  1  0
  7  5  1  0
  8  2  1  0
  1  9  1  0
  3 10  1  0
  3 11  1  0
  4 12  1  0
  6 13  1  0
  6 14  1  0
  8 15  1  0
  8 16  1  0
M  END
