
     RDKit          3D

 19 21  0  0  0  0  0  0  0  0999 V2000
   -0.9717    0.3998    1.9657 O   0  0  0  0  0  0  0  0  0  0  0  0
   -0.5153    0.1610    0.7427 C   0  0  0  0  0  0  0  0  0  0  0  0
   -1.0000    1.0680   -0.4002 C   0  0  0  0  0  0  0  0  0  0  0  0
   -0.5948   -0.1506   -1.2482 C   0  0  0  0  0  0  0  0  0  0  0  0
   -1.1336   -0.9509   -0.0844 C   0  0  0  0  0  0  0  0  0  0  0  0
    0.8794   -0.1479   -1.0850 C   0  0  0  0  0  0  0  0  0  0  0  0
    1.6093   -1.0038   -0.1457 C   0  0  0  0  0  0  0  0  0  0  0  0
    0.9568    0.1514    0.4554 C   0  0  0  0  0  0  0  0  0  0  0  0
    1.6431    1.3146    0.7607 O   0  0  0  0  0  0  0  0  0  0  0  0
   -0.9960   -0.4574    2.4961 H   0  0  0  0  0  0  0  0  0  0  0  0
   -2.0872    1.2081   -0.3409 H   0  0  0  0  0  0  0  0  0  0  0  0
   -0.3659    1.9407   -0.5190 H   0  0  0  0  0  0  0  0  0  0  0  0
   -1.0535   -0.2478   -2.2024 H   0  0  0  0  0  0  0  0  0  0  0  0
   -0.7539   -1.9484    0.0606 H   0  0  0  0  0  0  0  0  0  0  0  0
   -2.2505   -0.8284   -0.0532 H   0  0  0  0  0  0  0  0  0  0  0  0
    1.4289    0.5433   -1.7369 H   0  0  0  0  0  0  0  0  0  0  0  0
    1.2798   -2.0056    0.1688 H   0  0  0  0  0  0  0  0  0  0  0  0
    2.7283   -0.9441   -0.2269 H   0  0  0  0  0  0  0  0  0  0  0  0
    1.1967    1.8981    1.3928 H   0  0  0  0  0  0  0  0  0  0  0  0
  1  2  1  0
  2  3  1  0
  3  4  1  0
  4  5  1  0
  4  6  1  0
  6  7  1  0
  7  8  1  0
  8  9  1  0
  5  2  1  0
  8  6  1  0
  8  2  1  0
  1 10  1  0
  3 11  1  0
  3 12  1  0
  4 13  1  0
  5 14  1  0
  5 15  1  0
  6 16  1  0
  7 17  1  0
  7 18  1  0
  9 19  1  0
M  END
