
     RDKit          3D

 16 18  0  0  0  0  0  0  0  0999 V2000
    1.1211   -0.1428    1.8442 O   0  0  0  0  0  0  0  0  0  0  0  0
    0.6253    0.1856    0.6075 C   0  0  0  0  0  0  0  0  0  0  0  0
    1.5327    0.7837   -0.3999 C   0  0  0  0  0  0  0  0  0  0  0  0
    0.8681   -0.5540   -0.6153 C   0  0  0  0  0  0  0  0  0  0  0  0
   -0.5786   -0.5092   -0.9884 C   0  0  0  0  0  0  0  0  0  0  0  0
   -1.6388   -0.9210   -0.0236 C   0  0  0  0  0  0  0  0  0  0  0  0
   -0.8354    0.2608    0.3358 C   0  0  0  0  0  0  0  0  0  0  0  0
   -1.3850    1.5281    0.2294 O   0  0  0  0  0  0  0  0  0  0  0  0
    2.0575   -0.4581    1.7770 H   0  0  0  0  0  0  0  0  0  0  0  0
    1.1984    1.5767   -1.0895 H   0  0  0  0  0  0  0  0  0  0  0  0
    2.6227    0.6894   -0.1589 H   0  0  0  0  0  0  0  0  0  0  0  0
    1.4625   -1.4648   -0.7119 H   0  0  0  0  0  0  0  0  0  0  0  0
   -0.8568    0.0320   -1.9176 H   0  0  0  0  0  0  0  0  0  0  0  0
   -1.4911   -1.8891    0.4894 H   0  0  0  0  0  0  0  0  0  0  0  0
   -2.6695   -0.7341   -0.3596 H   0  0  0  0  0  0  0  0  0  0  0  0
   -2.0333    1.6165    0.9814 H   0  0  0  0  0  0  0  0  0  0  0  0
  1  2  1  0
  2  3  1  0
  3  4  1  0
  4  5  1  0
  5  6  1  0
  6  7  1  0
  7  8  1  0
  4  2  1  0
  7  5  1  0
  7  2  1  0
  1  9  1  0
  3 10  1  0
  3 11  1  0
  4 12  1  0
  5 13  1  0
  6 14  1  0
  6 15  1  0
  8 16  1  0
M  END
