
     RDKit          3D

 17 20  0  0  0  0  0  0  0  0999 V2000
    1.9843   -0.8942   -0.8634 O   0  0  0  0  0  0  0  0  0  0  0  0
    0.8111   -0.4397   -0.4041 C   0  0  0  0  0  0  0  0  0  0  0  0
   -0.1987   -1.3618    0.1584 C   0  0  0  0  0  0  0  0  0  0  0  0
   -1.2693   -0.3671    0.6285 C   0  0  0  0  0  0  0  0  0  0  0  0
   -1.2506    0.6603   -0.3924 C   0  0  0  0  0  0  0  0  0  0  0  0
   -0.5595    0.8392    1.0092 C   0  0  0  0  0  0  0  0  0  0  0  0
    0.8524    0.7731    0.5157 C   0  0  0  0  0  0  0  0  0  0  0  0
    0.9401    1.5293   -0.6799 O   0  0  0  0  0  0  0  0  0  0  0  0
    0.0365    0.5667   -1.1916 C   0  0  0  0  0  0  0  0  0  0  0  0
    2.6399   -0.9518   -0.1175 H   0  0  0  0  0  0  0  0  0  0  0  0
   -0.6573   -1.9615   -0.6659 H   0  0  0  0  0  0  0  0  0  0  0  0
    0.1334   -2.0219    0.9576 H   0  0  0  0  0  0  0  0  0  0  0  0
   -2.1786   -0.7416    1.0638 H   0  0  0  0  0  0  0  0  0  0  0  0
   -1.9967    1.4034   -0.6030 H   0  0  0  0  0  0  0  0  0  0  0  0
   -0.9224    1.6344    1.6373 H   0  0  0  0  0  0  0  0  0  0  0  0
    1.6669    0.8527    1.2022 H   0  0  0  0  0  0  0  0  0  0  0  0
   -0.0313    0.4805   -2.2548 H   0  0  0  0  0  0  0  0  0  0  0  0
  1  2  1  0
  2  3  1  0
  3  4  1  0
  4  5  1  0
  5  6  1  0
  6  7  1  0
  7  8  1  0
  8  9  1  0
  7  2  1  0
  9  2  1  0
  6  4  1  0
  9  5  1  0
  1 10  1  0
  3 11  1  0
  3 12  1  0
  4 13  1  0
  5 14  1  0
  6 15  1  0
  7 16  1  0
  9 17  1  0
M  END
