
     RDKit          3D

 17 19  0  0  0  0  0  0  0  0999 V2000
    2.1803    1.0413   -0.0144 O   0  0  0  0  0  0  0  0  0  0  0  0
    0.9117    0.4690    0.1830 C   0  0  0  0  0  0  0  0  0  0  0  0
   -0.1920    1.4553    0.1378 C   0  0  0  0  0  0  0  0  0  0  0  0
   -1.5611    0.9141    0.1590 C   0  0  0  0  0  0  0  0  0  0  0  0
   -1.7878   -0.3577   -0.0902 C   0  0  0  0  0  0  0  0  0  0  0  0
   -0.6983   -1.3071   -0.4015 C   0  0  0  0  0  0  0  0  0  0  0  0
   -0.1125   -1.7699    0.7764 O   0  0  0  0  0  0  0  0  0  0  0  0
    0.9018   -0.8377    0.8113 C   0  0  0  0  0  0  0  0  0  0  0  0
    0.6125   -0.6636   -0.7176 C   0  0  0  0  0  0  0  0  0  0  0  0
    2.8985    0.3674    0.1413 H   0  0  0  0  0  0  0  0  0  0  0  0
   -0.0699    2.0926   -0.7917 H   0  0  0  0  0  0  0  0  0  0  0  0
   -0.1120    2.2323    0.9589 H   0  0  0  0  0  0  0  0  0  0  0  0
   -2.4182    1.5926    0.3908 H   0  0  0  0  0  0  0  0  0  0  0  0
   -2.7978   -0.7533   -0.0744 H   0  0  0  0  0  0  0  0  0  0  0  0
   -0.9633   -2.0816   -1.1404 H   0  0  0  0  0  0  0  0  0  0  0  0
    1.8789   -1.2895    1.0793 H   0  0  0  0  0  0  0  0  0  0  0  0
    1.3292   -1.1041   -1.4075 H   0  0  0  0  0  0  0  0  0  0  0  0
  1  2  1  0
  2  3  1  0
  3  4  1  0
  4  5  2  0
  5  6  1  0
  6  7  1  0
  7  8  1  0
  8  9  1  0
  8  2  1  0
  9  2  1  0
  9  6  1  0
  1 10  1  0
  3 11  1  0
  3 12  1  0
  4 13  1  0
  5 14  1  0
  6 15  1  0
  8 16  1  0
  9 17  1  0
M  END
