
     RDKit          3D

 21 23  0  0  0  0  0  0  0  0999 V2000
   -1.2521   -0.0510    1.9326 O   0  0  0  0  0  0  0  0  0  0  0  0
   -1.0780    0.4966    0.6712 C   0  0  0  0  0  0  0  0  0  0  0  0
   -2.2997    0.8281   -0.1596 C   0  0  0  0  0  0  0  0  0  0  0  0
   -1.9601   -0.2397   -1.1730 C   0  0  0  0  0  0  0  0  0  0  0  0
   -0.7214   -0.5430   -0.3847 C   0  0  0  0  0  0  0  0  0  0  0  0
    0.2097    0.6017    0.0048 C   0  0  0  0  0  0  0  0  0  0  0  0
    1.4989    0.1100    0.5934 C   0  0  0  0  0  0  0  0  0  0  0  0
    2.7871    0.2078   -0.0574 C   0  0  0  0  0  0  0  0  0  0  0  0
    2.0554   -1.1004   -0.1700 C   0  0  0  0  0  0  0  0  0  0  0  0
   -1.2139    0.6297    2.6556 H   0  0  0  0  0  0  0  0  0  0  0  0
   -2.2587    1.8232   -0.6590 H   0  0  0  0  0  0  0  0  0  0  0  0
   -3.2650    0.6261    0.3629 H   0  0  0  0  0  0  0  0  0  0  0  0
   -1.7913    0.1251   -2.2102 H   0  0  0  0  0  0  0  0  0  0  0  0
   -2.6472   -1.1031   -1.1497 H   0  0  0  0  0  0  0  0  0  0  0  0
   -0.4962   -1.5601   -0.0822 H   0  0  0  0  0  0  0  0  0  0  0  0
    0.3196    1.3946   -0.7727 H   0  0  0  0  0  0  0  0  0  0  0  0
    1.4856    0.0422    1.7035 H   0  0  0  0  0  0  0  0  0  0  0  0
    3.6931    0.1634    0.5628 H   0  0  0  0  0  0  0  0  0  0  0  0
    2.9073    0.8395   -0.9595 H   0  0  0  0  0  0  0  0  0  0  0  0
    2.3532   -1.9630    0.4532 H   0  0  0  0  0  0  0  0  0  0  0  0
    1.6737   -1.3277   -1.1620 H   0  0  0  0  0  0  0  0  0  0  0  0
  1  2  1  0
  2  3  1  0
  3  4  1  0
  4  5  1  0
  5  6  1  0
  6  7  1  0
  7  8  1  0
  8  9  1  0
  5  2  1  0
  9  7  1  0
  6  2  1  0
  1 10  1  0
  3 11  1  0
  3 12  1  0
  4 13  1  0
  4 14  1  0
  5 15  1  0
  6 16  1  0
  7 17  1  0
  8 18  1  0
  8 19  1  0
  9 20  1  0
  9 21  1  0
M  END
