
     RDKit          3D

 14 16  0  0  0  0  0  0  0  0999 V2000
    1.9495   -0.2593    0.8185 O   0  0  0  0  0  0  0  0  0  0  0  0
    0.7163   -0.0312    0.3321 C   0  0  0  0  0  0  0  0  0  0  0  0
   -0.1142   -1.1783   -0.2700 C   0  0  0  0  0  0  0  0  0  0  0  0
   -1.3120   -0.3221   -0.6281 C   0  0  0  0  0  0  0  0  0  0  0  0
   -0.7151    0.7268   -1.2973 O   0  0  0  0  0  0  0  0  0  0  0  0
    0.2408    1.1537   -0.3524 C   0  0  0  0  0  0  0  0  0  0  0  0
   -0.3261    0.7849    0.9545 C   0  0  0  0  0  0  0  0  0  0  0  0
   -1.5882    0.2457    0.6120 O   0  0  0  0  0  0  0  0  0  0  0  0
    2.6851   -0.2538    0.1402 H   0  0  0  0  0  0  0  0  0  0  0  0
    0.3701   -1.6466   -1.1129 H   0  0  0  0  0  0  0  0  0  0  0  0
   -0.3760   -1.8221    0.5729 H   0  0  0  0  0  0  0  0  0  0  0  0
   -2.1152   -0.8227   -1.1128 H   0  0  0  0  0  0  0  0  0  0  0  0
    0.7951    2.0724   -0.5253 H   0  0  0  0  0  0  0  0  0  0  0  0
   -0.2101    1.3526    1.8688 H   0  0  0  0  0  0  0  0  0  0  0  0
  1  2  1  0
  2  3  1  0
  3  4  1  0
  4  5  1  0
  5  6  1  0
  6  7  1  0
  7  8  1  0
  6  2  1  0
  7  2  1  0
  8  4  1  0
  1  9  1  0
  3 10  1  0
  3 11  1  0
  4 12  1  0
  6 13  1  0
  7 14  1  0
M  END
