
     RDKit          3D

 19 21  0  0  0  0  0  0  0  0999 V2000
   -0.4838    2.1961   -1.1933 O   0  0  0  0  0  0  0  0  0  0  0  0
   -0.2840    1.0478   -0.4228 C   0  0  0  0  0  0  0  0  0  0  0  0
    0.8706    1.0593    0.5321 C   0  0  0  0  0  0  0  0  0  0  0  0
    1.7392   -0.0986    0.3290 C   0  0  0  0  0  0  0  0  0  0  0  0
    1.2375   -1.2575   -0.0423 C   0  0  0  0  0  0  0  0  0  0  0  0
   -0.2197   -1.4329   -0.2685 C   0  0  0  0  0  0  0  0  0  0  0  0
   -1.1101   -0.9658    0.8608 C   0  0  0  0  0  0  0  0  0  0  0  0
   -1.4628    0.2732    0.0724 C   0  0  0  0  0  0  0  0  0  0  0  0
   -0.6538   -0.2125   -1.0463 C   0  0  0  0  0  0  0  0  0  0  0  0
    0.3486    2.7342   -1.1931 H   0  0  0  0  0  0  0  0  0  0  0  0
    0.4528    1.1027    1.5824 H   0  0  0  0  0  0  0  0  0  0  0  0
    1.4159    2.0216    0.4274 H   0  0  0  0  0  0  0  0  0  0  0  0
    2.8207    0.0522    0.5018 H   0  0  0  0  0  0  0  0  0  0  0  0
    1.8942   -2.0916   -0.1841 H   0  0  0  0  0  0  0  0  0  0  0  0
   -0.5267   -2.3658   -0.7347 H   0  0  0  0  0  0  0  0  0  0  0  0
   -0.5690   -0.7860    1.8094 H   0  0  0  0  0  0  0  0  0  0  0  0
   -1.9890   -1.6133    1.0412 H   0  0  0  0  0  0  0  0  0  0  0  0
   -2.4831    0.6380    0.0058 H   0  0  0  0  0  0  0  0  0  0  0  0
   -0.9975   -0.3010   -2.0772 H   0  0  0  0  0  0  0  0  0  0  0  0
  1  2  1  0
  2  3  1  0
  3  4  1  0
  4  5  2  0
  5  6  1  0
  6  7  1  0
  7  8  1  0
  8  9  1  0
  8  2  1  0
  9  2  1  0
  9  6  1  0
  1 10  1  0
  3 11  1  0
  3 12  1  0
  4 13  1  0
  5 14  1  0
  6 15  1  0
  7 16  1  0
  7 17  1  0
  8 18  1  0
  9 19  1  0
M  END
