
     RDKit          3D

 18 20  0  0  0  0  0  0  0  0999 V2000
   -1.1040    1.9775    0.2720 O   0  0  0  0  0  0  0  0  0  0  0  0
   -0.4810    0.7584    0.2503 C   0  0  0  0  0  0  0  0  0  0  0  0
    0.9389    0.7460    0.8224 C   0  0  0  0  0  0  0  0  0  0  0  0
    1.6488   -0.4006    0.1705 C   0  0  0  0  0  0  0  0  0  0  0  0
    0.6517   -1.0015   -0.8097 C   0  0  0  0  0  0  0  0  0  0  0  0
   -0.7374   -1.2416   -0.3649 C   0  0  0  0  0  0  0  0  0  0  0  0
   -1.3399   -0.3942    0.7175 C   0  0  0  0  0  0  0  0  0  0  0  0
   -0.2995    0.0742   -1.0471 C   0  0  0  0  0  0  0  0  0  0  0  0
   -1.4571    2.2818   -0.5890 H   0  0  0  0  0  0  0  0  0  0  0  0
    1.3827    1.7278    0.4980 H   0  0  0  0  0  0  0  0  0  0  0  0
    0.9137    0.7139    1.9127 H   0  0  0  0  0  0  0  0  0  0  0  0
    2.5033   -0.0084   -0.4381 H   0  0  0  0  0  0  0  0  0  0  0  0
    2.0175   -1.1178    0.9045 H   0  0  0  0  0  0  0  0  0  0  0  0
    1.0429   -1.6831   -1.5797 H   0  0  0  0  0  0  0  0  0  0  0  0
   -1.3619   -1.9019   -0.9858 H   0  0  0  0  0  0  0  0  0  0  0  0
   -1.1499   -0.7542    1.7307 H   0  0  0  0  0  0  0  0  0  0  0  0
   -2.4152   -0.1355    0.5109 H   0  0  0  0  0  0  0  0  0  0  0  0
   -0.7537    0.3592   -1.9752 H   0  0  0  0  0  0  0  0  0  0  0  0
  1  2  1  0
  2  3  1  0
  3  4  1  0
  4  5  1  0
  5  6  1  0
  6  7  1  0
  6  8  1  0
  7  2  1  0
  8  2  1  0
  8  5  1  0
  1  9  1  0
  3 10  1  0
  3 11  1  0
  4 12  1  0
  4 13  1  0
  5 14  1  0
  6 15  1  0
  7 16  1  0
  7 17  1  0
  8 18  1  0
M  END
