
     RDKit          3D

 19 21  0  0  0  0  0  0  0  0999 V2000
    2.2940    1.2554   -0.6549 O   0  0  0  0  0  0  0  0  0  0  0  0
    1.1305    0.6700   -0.2564 C   0  0  0  0  0  0  0  0  0  0  0  0
    1.1815   -0.3962    0.7967 C   0  0  0  0  0  0  0  0  0  0  0  0
    0.2092   -1.1879   -0.0075 C   0  0  0  0  0  0  0  0  0  0  0  0
   -1.2017   -1.2301    0.4315 C   0  0  0  0  0  0  0  0  0  0  0  0
   -1.8074    0.0987    0.5898 C   0  0  0  0  0  0  0  0  0  0  0  0
   -1.3236    1.1566   -0.0036 C   0  0  0  0  0  0  0  0  0  0  0  0
   -0.1478    1.0934   -0.8641 C   0  0  0  0  0  0  0  0  0  0  0  0
    0.3619   -0.2435   -1.1692 C   0  0  0  0  0  0  0  0  0  0  0  0
    2.6126    1.8448    0.0745 H   0  0  0  0  0  0  0  0  0  0  0  0
    2.2102   -0.8222    0.8509 H   0  0  0  0  0  0  0  0  0  0  0  0
    0.8663   -0.0918    1.8117 H   0  0  0  0  0  0  0  0  0  0  0  0
    0.5745   -2.2165   -0.2354 H   0  0  0  0  0  0  0  0  0  0  0  0
   -1.3422   -1.7607    1.4049 H   0  0  0  0  0  0  0  0  0  0  0  0
   -1.7803   -1.7800   -0.3666 H   0  0  0  0  0  0  0  0  0  0  0  0
   -2.7071    0.2142    1.2343 H   0  0  0  0  0  0  0  0  0  0  0  0
   -1.8128    2.1125    0.1493 H   0  0  0  0  0  0  0  0  0  0  0  0
   -0.0768    1.8519   -1.6576 H   0  0  0  0  0  0  0  0  0  0  0  0
    0.7591   -0.5687   -2.1281 H   0  0  0  0  0  0  0  0  0  0  0  0
  1  2  1  0
  2  3  1  0
  3  4  1  0
  4  5  1  0
  5  6  1  0
  6  7  2  0
  7  8  1  0
  8  9  1  0
  8  2  1  0
  9  2  1  0
  9  4  1  0
  1 10  1  0
  3 11  1  0
  3 12  1  0
  4 13  1  0
  5 14  1  0
  5 15  1  0
  6 16  1  0
  7 17  1  0
  8 18  1  0
  9 19  1  0
M  END
