
     RDKit          3D

 16 18  0  0  0  0  0  0  0  0999 V2000
   -0.9851    1.2404    1.5754 O   0  0  0  0  0  0  0  0  0  0  0  0
   -0.3627    0.6584    0.5496 C   0  0  0  0  0  0  0  0  0  0  0  0
    0.3821   -0.6181    0.5616 C   0  0  0  0  0  0  0  0  0  0  0  0
    1.5949   -0.2935   -0.2945 C   0  0  0  0  0  0  0  0  0  0  0  0
    1.3537    0.8878   -0.9348 O   0  0  0  0  0  0  0  0  0  0  0  0
    0.0620    1.2947   -0.7074 C   0  0  0  0  0  0  0  0  0  0  0  0
   -1.0082    0.2657   -0.7363 C   0  0  0  0  0  0  0  0  0  0  0  0
   -0.7092   -1.1597   -0.3716 C   0  0  0  0  0  0  0  0  0  0  0  0
   -0.9298    0.7460    2.4048 H   0  0  0  0  0  0  0  0  0  0  0  0
    0.5437   -1.1589    1.4748 H   0  0  0  0  0  0  0  0  0  0  0  0
    2.4878   -0.2927    0.3620 H   0  0  0  0  0  0  0  0  0  0  0  0
    1.6694   -1.0995   -1.0774 H   0  0  0  0  0  0  0  0  0  0  0  0
   -0.2107    2.3417   -0.7990 H   0  0  0  0  0  0  0  0  0  0  0  0
   -2.0028    0.5994   -1.0184 H   0  0  0  0  0  0  0  0  0  0  0  0
   -1.5654   -1.6042    0.1663 H   0  0  0  0  0  0  0  0  0  0  0  0
   -0.3197   -1.8077   -1.1553 H   0  0  0  0  0  0  0  0  0  0  0  0
  1  2  1  0
  2  3  1  0
  3  4  1  0
  4  5  1  0
  5  6  1  0
  6  7  1  0
  7  8  1  0
  6  2  1  0
  7  2  1  0
  8  3  1  0
  1  9  1  0
  3 10  1  0
  4 11  1  0
  4 12  1  0
  6 13  1  0
  7 14  1  0
  8 15  1  0
  8 16  1  0
M  END
