
     RDKit          3D

 21 22  0  0  0  0  0  0  0  0999 V2000
   -2.3410   -1.1978    0.4800 O   0  0  0  0  0  0  0  0  0  0  0  0
   -1.1231   -0.5634    0.0994 C   0  0  0  0  0  0  0  0  0  0  0  0
   -1.2512    0.8831    0.1794 C   0  0  0  0  0  0  0  0  0  0  0  0
   -0.0793    1.7297   -0.1307 C   0  0  0  0  0  0  0  0  0  0  0  0
    0.8580    1.4617    0.8928 O   0  0  0  0  0  0  0  0  0  0  0  0
    1.7555    0.5813    0.3632 C   0  0  0  0  0  0  0  0  0  0  0  0
    1.4079   -0.8357    0.3602 C   0  0  0  0  0  0  0  0  0  0  0  0
    0.0587   -1.3054    0.1344 C   0  0  0  0  0  0  0  0  0  0  0  0
   -0.5477   -1.0339   -1.2545 C   0  0  0  0  0  0  0  0  0  0  0  0
   -2.3795   -1.0485    1.4762 H   0  0  0  0  0  0  0  0  0  0  0  0
   -1.6259    1.1988    1.1983 H   0  0  0  0  0  0  0  0  0  0  0  0
   -2.0901    1.2084   -0.5082 H   0  0  0  0  0  0  0  0  0  0  0  0
    0.3523    1.5644   -1.1352 H   0  0  0  0  0  0  0  0  0  0  0  0
   -0.3974    2.7988   -0.0624 H   0  0  0  0  0  0  0  0  0  0  0  0
    2.7326    0.7708    0.9019 H   0  0  0  0  0  0  0  0  0  0  0  0
    1.9767    0.9290   -0.6908 H   0  0  0  0  0  0  0  0  0  0  0  0
    2.0834   -1.3550   -0.3918 H   0  0  0  0  0  0  0  0  0  0  0  0
    1.7835   -1.2649    1.3426 H   0  0  0  0  0  0  0  0  0  0  0  0
   -0.0513   -2.4118    0.3764 H   0  0  0  0  0  0  0  0  0  0  0  0
   -1.1311   -1.8052   -1.7625 H   0  0  0  0  0  0  0  0  0  0  0  0
    0.0090   -0.3046   -1.8689 H   0  0  0  0  0  0  0  0  0  0  0  0
  1  2  1  0
  2  3  1  0
  3  4  1  0
  4  5  1  0
  5  6  1  0
  6  7  1  0
  7  8  1  0
  8  9  1  0
  8  2  1  0
  9  2  1  0
  1 10  1  0
  3 11  1  0
  3 12  1  0
  4 13  1  0
  4 14  1  0
  6 15  1  0
  6 16  1  0
  7 17  1  0
  7 18  1  0
  8 19  1  0
  9 20  1  0
  9 21  1  0
M  END
