
     RDKit          3D

 17 19  0  0  0  0  0  0  0  0999 V2000
   -1.3675    1.7995    0.6748 O   0  0  0  0  0  0  0  0  0  0  0  0
   -0.6545    0.7726    0.1082 C   0  0  0  0  0  0  0  0  0  0  0  0
   -1.3712   -0.1511   -0.8418 C   0  0  0  0  0  0  0  0  0  0  0  0
   -0.6110   -1.2857   -0.9533 O   0  0  0  0  0  0  0  0  0  0  0  0
    0.0720   -1.4940    0.2220 C   0  0  0  0  0  0  0  0  0  0  0  0
    1.4493   -1.4681   -0.1064 O   0  0  0  0  0  0  0  0  0  0  0  0
    1.6968   -0.1630   -0.4964 C   0  0  0  0  0  0  0  0  0  0  0  0
    0.7815    0.7228    0.3467 C   0  0  0  0  0  0  0  0  0  0  0  0
   -0.0400   -0.2510    1.0595 C   0  0  0  0  0  0  0  0  0  0  0  0
   -1.1096    2.6654    0.2917 H   0  0  0  0  0  0  0  0  0  0  0  0
   -2.3309   -0.4530   -0.3285 H   0  0  0  0  0  0  0  0  0  0  0  0
   -1.6085    0.2954   -1.8102 H   0  0  0  0  0  0  0  0  0  0  0  0
   -0.1981   -2.4125    0.7320 H   0  0  0  0  0  0  0  0  0  0  0  0
    2.7543    0.0555   -0.2377 H   0  0  0  0  0  0  0  0  0  0  0  0
    1.5563    0.0342   -1.5569 H   0  0  0  0  0  0  0  0  0  0  0  0
    1.2634    1.5928    0.7922 H   0  0  0  0  0  0  0  0  0  0  0  0
   -0.2825   -0.2597    2.1038 H   0  0  0  0  0  0  0  0  0  0  0  0
  1  2  1  0
  2  3  1  0
  3  4  1  0
  4  5  1  0
  5  6  1  0
  6  7  1  0
  7  8  1  0
  8  9  1  0
  8  2  1  0
  9  2  1  0
  9  5  1  0
  1 10  1  0
  3 11  1  0
  3 12  1  0
  5 13  1  0
  7 14  1  0
  7 15  1  0
  8 16  1  0
  9 17  1  0
M  END
