
     RDKit          3D

 17 19  0  0  0  0  0  0  0  0999 V2000
   -1.2250   -0.5804    1.8253 O   0  0  0  0  0  0  0  0  0  0  0  0
   -0.4308   -0.4844    0.7350 C   0  0  0  0  0  0  0  0  0  0  0  0
    0.2013    0.8088    0.2997 C   0  0  0  0  0  0  0  0  0  0  0  0
   -0.6233    1.1194   -0.9328 C   0  0  0  0  0  0  0  0  0  0  0  0
   -0.6671   -0.1227   -1.5579 O   0  0  0  0  0  0  0  0  0  0  0  0
   -0.8176   -1.0862   -0.5966 C   0  0  0  0  0  0  0  0  0  0  0  0
    0.3924   -1.5214    0.1549 C   0  0  0  0  0  0  0  0  0  0  0  0
    1.6272   -0.9951   -0.0956 O   0  0  0  0  0  0  0  0  0  0  0  0
    1.5572    0.3644   -0.1667 C   0  0  0  0  0  0  0  0  0  0  0  0
   -1.2793    0.3059    2.2699 H   0  0  0  0  0  0  0  0  0  0  0  0
    0.2018    1.5963    1.0467 H   0  0  0  0  0  0  0  0  0  0  0  0
   -0.0760    1.8327   -1.5593 H   0  0  0  0  0  0  0  0  0  0  0  0
   -1.6318    1.4908   -0.6845 H   0  0  0  0  0  0  0  0  0  0  0  0
   -1.7110   -1.7031   -0.5715 H   0  0  0  0  0  0  0  0  0  0  0  0
    0.4283   -2.5750    0.5574 H   0  0  0  0  0  0  0  0  0  0  0  0
    1.7455    0.7133   -1.2194 H   0  0  0  0  0  0  0  0  0  0  0  0
    2.3082    0.8367    0.4954 H   0  0  0  0  0  0  0  0  0  0  0  0
  1  2  1  0
  2  3  1  0
  3  4  1  0
  4  5  1  0
  5  6  1  0
  6  7  1  0
  7  8  1  0
  8  9  1  0
  6  2  1  0
  7  2  1  0
  9  3  1  0
  1 10  1  0
  3 11  1  0
  4 12  1  0
  4 13  1  0
  6 14  1  0
  7 15  1  0
  9 16  1  0
  9 17  1  0
M  END
