
     RDKit          3D

 17 19  0  0  0  0  0  0  0  0999 V2000
   -1.2583   -0.8554   -1.0998 O   0  0  0  0  0  0  0  0  0  0  0  0
   -1.1886    0.4470   -0.5254 C   0  0  0  0  0  0  0  0  0  0  0  0
   -1.4928    0.0605    0.9842 C   0  0  0  0  0  0  0  0  0  0  0  0
   -0.2107   -0.6010    0.8023 C   0  0  0  0  0  0  0  0  0  0  0  0
    0.9835   -1.1216    0.5788 C   0  0  0  0  0  0  0  0  0  0  0  0
    1.9389   -0.3144   -0.3107 C   0  0  0  0  0  0  0  0  0  0  0  0
    1.2069    0.1743   -1.4115 O   0  0  0  0  0  0  0  0  0  0  0  0
    0.0928    0.9591   -1.0236 C   0  0  0  0  0  0  0  0  0  0  0  0
    0.0047    0.8860    0.3473 C   0  0  0  0  0  0  0  0  0  0  0  0
   -2.2318   -1.0311   -1.1262 H   0  0  0  0  0  0  0  0  0  0  0  0
   -1.5708    0.9096    1.6442 H   0  0  0  0  0  0  0  0  0  0  0  0
   -2.3936   -0.5591    1.0669 H   0  0  0  0  0  0  0  0  0  0  0  0
    1.2393   -2.0670    1.0123 H   0  0  0  0  0  0  0  0  0  0  0  0
    2.7197   -1.0029   -0.6488 H   0  0  0  0  0  0  0  0  0  0  0  0
    2.3274    0.5508    0.2391 H   0  0  0  0  0  0  0  0  0  0  0  0
    0.0616    1.9182   -1.5763 H   0  0  0  0  0  0  0  0  0  0  0  0
   -0.2281    1.6468    1.0472 H   0  0  0  0  0  0  0  0  0  0  0  0
  1  2  1  0
  2  3  1  0
  3  4  1  0
  4  5  2  0
  5  6  1  0
  6  7  1  0
  7  8  1  0
  8  9  1  0
  8  2  1  0
  9  2  1  0
  9  4  1  0
  1 10  1  0
  3 11  1  0
  3 12  1  0
  5 13  1  0
  6 14  1  0
  6 15  1  0
  8 16  1  0
  9 17  1  0
M  END
