
     RDKit          3D

 19 20  0  0  0  0  0  0  0  0999 V2000
    2.3221    0.3814   -0.7528 O   0  0  0  0  0  0  0  0  0  0  0  0
    1.0480    0.2363   -0.2907 C   0  0  0  0  0  0  0  0  0  0  0  0
    0.2905    1.5192   -0.2594 C   0  0  0  0  0  0  0  0  0  0  0  0
   -0.9383    1.4439    0.2420 C   0  0  0  0  0  0  0  0  0  0  0  0
   -1.3223    0.0228    0.6122 C   0  0  0  0  0  0  0  0  0  0  0  0
   -0.2489   -0.3945    1.5979 C   0  0  0  0  0  0  0  0  0  0  0  0
    0.9831   -0.2638    1.1187 C   0  0  0  0  0  0  0  0  0  0  0  0
   -1.1963   -0.7524   -0.6832 C   0  0  0  0  0  0  0  0  0  0  0  0
    0.2603   -0.8211   -1.0834 C   0  0  0  0  0  0  0  0  0  0  0  0
    2.8887   -0.3713   -0.5260 H   0  0  0  0  0  0  0  0  0  0  0  0
    0.7359    2.4243   -0.6245 H   0  0  0  0  0  0  0  0  0  0  0  0
   -1.6024    2.2660    0.3811 H   0  0  0  0  0  0  0  0  0  0  0  0
   -2.3179   -0.0232    1.0472 H   0  0  0  0  0  0  0  0  0  0  0  0
   -0.4912   -0.7563    2.5798 H   0  0  0  0  0  0  0  0  0  0  0  0
    1.8863   -0.4725    1.6217 H   0  0  0  0  0  0  0  0  0  0  0  0
   -1.7020   -0.1347   -1.4824 H   0  0  0  0  0  0  0  0  0  0  0  0
   -1.6626   -1.7571   -0.6249 H   0  0  0  0  0  0  0  0  0  0  0  0
    0.4300   -0.7368   -2.1559 H   0  0  0  0  0  0  0  0  0  0  0  0
    0.6371   -1.8104   -0.7174 H   0  0  0  0  0  0  0  0  0  0  0  0
  1  2  1  0
  2  3  1  0
  3  4  2  0
  4  5  1  0
  5  6  1  0
  6  7  2  0
  5  8  1  0
  8  9  1  0
  7  2  1  0
  9  2  1  0
  1 10  1  0
  3 11  1  0
  4 12  1  0
  5 13  1  0
  6 14  1  0
  7 15  1  0
  8 16  1  0
  8 17  1  0
  9 18  1  0
  9 19  1  0
M  END
