
     RDKit          3D

 19 21  0  0  0  0  0  0  0  0999 V2000
    0.7980    1.4406    1.7469 O   0  0  0  0  0  0  0  0  0  0  0  0
    0.4605    0.6251    0.7440 C   0  0  0  0  0  0  0  0  0  0  0  0
    1.3407    0.6773   -0.4702 C   0  0  0  0  0  0  0  0  0  0  0  0
    1.2433   -0.4723   -1.1183 C   0  0  0  0  0  0  0  0  0  0  0  0
    0.2494   -1.2989   -0.3814 C   0  0  0  0  0  0  0  0  0  0  0  0
    0.6173   -0.8768    1.0590 C   0  0  0  0  0  0  0  0  0  0  0  0
   -1.1374   -0.7199   -0.4571 C   0  0  0  0  0  0  0  0  0  0  0  0
   -1.4007    0.5908   -1.0784 C   0  0  0  0  0  0  0  0  0  0  0  0
   -0.9926    0.6135    0.3351 C   0  0  0  0  0  0  0  0  0  0  0  0
    0.1674    2.1716    1.9686 H   0  0  0  0  0  0  0  0  0  0  0  0
    1.9451    1.5179   -0.7535 H   0  0  0  0  0  0  0  0  0  0  0  0
    1.7524   -0.8018   -2.0031 H   0  0  0  0  0  0  0  0  0  0  0  0
    0.3264   -2.3609   -0.5373 H   0  0  0  0  0  0  0  0  0  0  0  0
   -0.1557   -1.1477    1.7709 H   0  0  0  0  0  0  0  0  0  0  0  0
    1.6385   -1.1363    1.3108 H   0  0  0  0  0  0  0  0  0  0  0  0
   -1.9496   -1.3887   -0.1673 H   0  0  0  0  0  0  0  0  0  0  0  0
   -2.4685    0.8224   -1.2698 H   0  0  0  0  0  0  0  0  0  0  0  0
   -0.7336    1.0216   -1.8607 H   0  0  0  0  0  0  0  0  0  0  0  0
   -1.7008    0.7227    1.1618 H   0  0  0  0  0  0  0  0  0  0  0  0
  1  2  1  0
  2  3  1  0
  3  4  2  0
  4  5  1  0
  5  6  1  0
  5  7  1  0
  7  8  1  0
  8  9  1  0
  6  2  1  0
  9  7  1  0
  9  2  1  0
  1 10  1  0
  3 11  1  0
  4 12  1  0
  5 13  1  0
  6 14  1  0
  6 15  1  0
  7 16  1  0
  8 17  1  0
  8 18  1  0
  9 19  1  0
M  END
