
     RDKit          3D

 23 24  0  0  0  0  0  0  0  0999 V2000
    0.3858    1.5943    0.1988 O   0  0  0  0  0  0  0  0  0  0  0  0
    0.0417    0.4572   -0.5195 C   0  0  0  0  0  0  0  0  0  0  0  0
   -1.2982    0.5243   -1.1027 C   0  0  0  0  0  0  0  0  0  0  0  0
   -2.2114    0.2389    0.0960 C   0  0  0  0  0  0  0  0  0  0  0  0
   -1.2582    0.0079    1.2844 C   0  0  0  0  0  0  0  0  0  0  0  0
   -0.1610   -0.6593    0.5374 C   0  0  0  0  0  0  0  0  0  0  0  0
    1.1883   -0.6443    1.1275 C   0  0  0  0  0  0  0  0  0  0  0  0
    2.0728   -0.6046   -0.1297 C   0  0  0  0  0  0  0  0  0  0  0  0
    1.1441   -0.1475   -1.2689 C   0  0  0  0  0  0  0  0  0  0  0  0
    1.2549    1.9729   -0.0501 H   0  0  0  0  0  0  0  0  0  0  0  0
   -1.4942    1.5844   -1.4397 H   0  0  0  0  0  0  0  0  0  0  0  0
   -1.4954   -0.1263   -1.9472 H   0  0  0  0  0  0  0  0  0  0  0  0
   -2.9153    1.0387    0.2895 H   0  0  0  0  0  0  0  0  0  0  0  0
   -2.6629   -0.7533   -0.1033 H   0  0  0  0  0  0  0  0  0  0  0  0
   -1.7520   -0.6048    2.0387 H   0  0  0  0  0  0  0  0  0  0  0  0
   -0.8998    0.9832    1.6479 H   0  0  0  0  0  0  0  0  0  0  0  0
   -0.4576   -1.5944    0.0380 H   0  0  0  0  0  0  0  0  0  0  0  0
    1.3735   -1.5702    1.7067 H   0  0  0  0  0  0  0  0  0  0  0  0
    1.3185    0.2738    1.7218 H   0  0  0  0  0  0  0  0  0  0  0  0
    2.8776    0.1407    0.0450 H   0  0  0  0  0  0  0  0  0  0  0  0
    2.4449   -1.6077   -0.3822 H   0  0  0  0  0  0  0  0  0  0  0  0
    1.6929    0.5133   -1.9635 H   0  0  0  0  0  0  0  0  0  0  0  0
    0.8112   -1.0173   -1.8248 H   0  0  0  0  0  0  0  0  0  0  0  0
  1  2  1  0
  2  3  1  0
  3  4  1  0
  4  5  1  0
  5  6  1  0
  6  7  1  0
  7  8  1  0
  8  9  1  0
  6  2  1  0
  9  2  1  0
  1 10  1  0
  3 11  1  0
  3 12  1  0
  4 13  1  0
  4 14  1  0
  5 15  1  0
  5 16  1  0
  6 17  1  0
  7 18  1  0
  7 19  1  0
  8 20  1  0
  8 21  1  0
  9 22  1  0
  9 23  1  0
M  END
