
     RDKit          3D

 21 22  0  0  0  0  0  0  0  0999 V2000
   -1.8471    1.9624    0.4039 O   0  0  0  0  0  0  0  0  0  0  0  0
   -0.9084    1.0033    0.1465 C   0  0  0  0  0  0  0  0  0  0  0  0
    0.4893    1.4688    0.0430 C   0  0  0  0  0  0  0  0  0  0  0  0
    1.5888    0.7430   -0.0593 C   0  0  0  0  0  0  0  0  0  0  0  0
    1.7427   -0.7270    0.1921 C   0  0  0  0  0  0  0  0  0  0  0  0
    0.6433   -1.5050   -0.4329 C   0  0  0  0  0  0  0  0  0  0  0  0
   -0.7356   -1.0695   -0.1738 C   0  0  0  0  0  0  0  0  0  0  0  0
   -1.2336    0.0660   -1.0250 C   0  0  0  0  0  0  0  0  0  0  0  0
   -0.9794   -0.2429    1.0344 C   0  0  0  0  0  0  0  0  0  0  0  0
   -1.3735    2.7438    0.8216 H   0  0  0  0  0  0  0  0  0  0  0  0
    0.6026    2.5446    0.0546 H   0  0  0  0  0  0  0  0  0  0  0  0
    2.4962    1.2897   -0.3662 H   0  0  0  0  0  0  0  0  0  0  0  0
    1.8132   -0.8967    1.3049 H   0  0  0  0  0  0  0  0  0  0  0  0
    2.7000   -1.0351   -0.2824 H   0  0  0  0  0  0  0  0  0  0  0  0
    0.8496   -1.5349   -1.5439 H   0  0  0  0  0  0  0  0  0  0  0  0
    0.7526   -2.5715   -0.0750 H   0  0  0  0  0  0  0  0  0  0  0  0
   -1.4536   -1.9415   -0.2075 H   0  0  0  0  0  0  0  0  0  0  0  0
   -0.5998    0.3467   -1.8772 H   0  0  0  0  0  0  0  0  0  0  0  0
   -2.3203   -0.0150   -1.2267 H   0  0  0  0  0  0  0  0  0  0  0  0
   -0.2180   -0.2737    1.8309 H   0  0  0  0  0  0  0  0  0  0  0  0
   -2.0090   -0.3556    1.4380 H   0  0  0  0  0  0  0  0  0  0  0  0
  1  2  1  0
  2  3  1  0
  3  4  2  0
  4  5  1  0
  5  6  1  0
  6  7  1  0
  7  8  1  0
  7  9  1  0
  8  2  1  0
  9  2  1  0
  1 10  1  0
  3 11  1  0
  4 12  1  0
  5 13  1  0
  5 14  1  0
  6 15  1  0
  6 16  1  0
  7 17  1  0
  8 18  1  0
  8 19  1  0
  9 20  1  0
  9 21  1  0
M  END
