
     RDKit          3D

 19 22  0  0  0  0  0  0  0  0999 V2000
   -1.5249    2.0449   -0.1855 O   0  0  0  0  0  0  0  0  0  0  0  0
   -0.8305    0.9646    0.0885 C   0  0  0  0  0  0  0  0  0  0  0  0
   -1.5397   -0.4082   -0.0129 C   0  0  0  0  0  0  0  0  0  0  0  0
   -0.4372   -1.4988   -0.1355 C   0  0  0  0  0  0  0  0  0  0  0  0
    1.1112   -1.2471   -0.1787 C   0  0  0  0  0  0  0  0  0  0  0  0
    1.8143    0.1338   -0.0706 C   0  0  0  0  0  0  0  0  0  0  0  0
    0.7124    1.2253    0.0528 C   0  0  0  0  0  0  0  0  0  0  0  0
    0.0711    0.2752    0.6705 C   0  0  0  0  0  0  0  0  0  0  0  0
    0.2181   -0.5531   -0.7299 C   0  0  0  0  0  0  0  0  0  0  0  0
   -2.2925    2.1746    0.3889 H   0  0  0  0  0  0  0  0  0  0  0  0
   -2.1396   -0.4332   -0.9368 H   0  0  0  0  0  0  0  0  0  0  0  0
   -2.1466   -0.6063    0.8712 H   0  0  0  0  0  0  0  0  0  0  0  0
   -0.7008   -2.4596   -0.5022 H   0  0  0  0  0  0  0  0  0  0  0  0
    1.5898   -1.9838    0.4339 H   0  0  0  0  0  0  0  0  0  0  0  0
    2.3969    0.2086    0.8443 H   0  0  0  0  0  0  0  0  0  0  0  0
    2.4083    0.2945   -0.9734 H   0  0  0  0  0  0  0  0  0  0  0  0
    1.0037    2.1695    0.4442 H   0  0  0  0  0  0  0  0  0  0  0  0
    0.1796   -0.1785    1.6181 H   0  0  0  0  0  0  0  0  0  0  0  0
    0.1063   -0.1226   -1.6870 H   0  0  0  0  0  0  0  0  0  0  0  0
  1  2  1  0
  2  3  1  0
  3  4  1  0
  4  5  1  0
  5  6  1  0
  6  7  1  0
  7  8  1  0
  8  9  1  0
  7  2  1  0
  8  2  1  0
  9  4  1  0
  9  5  1  0
  1 10  1  0
  3 11  1  0
  3 12  1  0
  4 13  1  0
  5 14  1  0
  6 15  1  0
  6 16  1  0
  7 17  1  0
  8 18  1  0
  9 19  1  0
M  END
