
     RDKit          3D

 19 20  0  0  0  0  0  0  0  0999 V2000
    0.3212    2.0443    0.2877 O   0  0  0  0  0  0  0  0  0  0  0  0
    0.0538    0.7065    0.2561 C   0  0  0  0  0  0  0  0  0  0  0  0
   -1.3488    0.3526    0.6998 C   0  0  0  0  0  0  0  0  0  0  0  0
   -1.5955   -0.8843   -0.1419 C   0  0  0  0  0  0  0  0  0  0  0  0
   -0.8842   -0.7582   -1.2999 O   0  0  0  0  0  0  0  0  0  0  0  0
    0.0244    0.2547   -1.1898 C   0  0  0  0  0  0  0  0  0  0  0  0
    1.3283   -0.0873   -1.4542 O   0  0  0  0  0  0  0  0  0  0  0  0
    1.8408   -0.7065   -0.3280 C   0  0  0  0  0  0  0  0  0  0  0  0
    1.0824   -0.1756    0.8619 C   0  0  0  0  0  0  0  0  0  0  0  0
   -0.2217    2.4716   -0.4497 H   0  0  0  0  0  0  0  0  0  0  0  0
   -1.4090    0.1638    1.7769 H   0  0  0  0  0  0  0  0  0  0  0  0
   -2.0182    1.1863    0.3979 H   0  0  0  0  0  0  0  0  0  0  0  0
   -2.6888   -0.9536   -0.2860 H   0  0  0  0  0  0  0  0  0  0  0  0
   -1.1829   -1.7694    0.4179 H   0  0  0  0  0  0  0  0  0  0  0  0
   -0.2927    1.0940   -1.8650 H   0  0  0  0  0  0  0  0  0  0  0  0
    2.9128   -0.4947   -0.1530 H   0  0  0  0  0  0  0  0  0  0  0  0
    1.7233   -1.7967   -0.4718 H   0  0  0  0  0  0  0  0  0  0  0  0
    0.6507   -1.0671    1.3908 H   0  0  0  0  0  0  0  0  0  0  0  0
    1.7044    0.4194    1.5503 H   0  0  0  0  0  0  0  0  0  0  0  0
  1  2  1  0
  2  3  1  0
  3  4  1  0
  4  5  1  0
  5  6  1  0
  6  7  1  0
  7  8  1  0
  8  9  1  0
  6  2  1  0
  9  2  1  0
  1 10  1  0
  3 11  1  0
  3 12  1  0
  4 13  1  0
  4 14  1  0
  6 15  1  0
  8 16  1  0
  8 17  1  0
  9 18  1  0
  9 19  1  0
M  END
