
     RDKit          3D

 19 21  0  0  0  0  0  0  0  0999 V2000
    1.0712    1.6052   -1.1700 O   0  0  0  0  0  0  0  0  0  0  0  0
    0.8075    0.6234   -0.2000 C   0  0  0  0  0  0  0  0  0  0  0  0
    1.7664   -0.4443   -0.0026 C   0  0  0  0  0  0  0  0  0  0  0  0
    0.5491   -0.8178   -0.7457 C   0  0  0  0  0  0  0  0  0  0  0  0
   -0.6251   -1.3294    0.0322 C   0  0  0  0  0  0  0  0  0  0  0  0
   -0.5864   -0.4892    1.3179 C   0  0  0  0  0  0  0  0  0  0  0  0
   -0.4463    0.8332    0.5502 C   0  0  0  0  0  0  0  0  0  0  0  0
   -1.5897    0.6153   -0.4530 C   0  0  0  0  0  0  0  0  0  0  0  0
   -1.7742   -0.7571   -0.5463 O   0  0  0  0  0  0  0  0  0  0  0  0
    1.8507    2.1205   -0.7996 H   0  0  0  0  0  0  0  0  0  0  0  0
    2.6944   -0.3826   -0.6462 H   0  0  0  0  0  0  0  0  0  0  0  0
    2.0211   -0.8881    0.9822 H   0  0  0  0  0  0  0  0  0  0  0  0
    0.5469   -0.8708   -1.8424 H   0  0  0  0  0  0  0  0  0  0  0  0
   -0.6821   -2.3797    0.1979 H   0  0  0  0  0  0  0  0  0  0  0  0
   -1.5852   -0.5601    1.8028 H   0  0  0  0  0  0  0  0  0  0  0  0
    0.2481   -0.7106    1.9599 H   0  0  0  0  0  0  0  0  0  0  0  0
   -0.5520    1.7051    1.1532 H   0  0  0  0  0  0  0  0  0  0  0  0
   -1.2388    0.9591   -1.4485 H   0  0  0  0  0  0  0  0  0  0  0  0
   -2.4757    1.1678   -0.1421 H   0  0  0  0  0  0  0  0  0  0  0  0
  1  2  1  0
  2  3  1  0
  3  4  1  0
  4  5  1  0
  5  6  1  0
  6  7  1  0
  7  8  1  0
  8  9  1  0
  4  2  1  0
  9  5  1  0
  7  2  1  0
  1 10  1  0
  3 11  1  0
  3 12  1  0
  4 13  1  0
  5 14  1  0
  6 15  1  0
  6 16  1  0
  7 17  1  0
  8 18  1  0
  8 19  1  0
M  END
