
     RDKit          3D

 19 21  0  0  0  0  0  0  0  0999 V2000
    0.1922    2.1341    0.2544 O   0  0  0  0  0  0  0  0  0  0  0  0
   -0.0838    0.8549   -0.1633 C   0  0  0  0  0  0  0  0  0  0  0  0
   -1.4778    0.6547   -0.6858 C   0  0  0  0  0  0  0  0  0  0  0  0
   -1.5632   -0.5987    0.1709 C   0  0  0  0  0  0  0  0  0  0  0  0
   -0.3985   -0.0459    0.9917 C   0  0  0  0  0  0  0  0  0  0  0  0
    0.7669   -0.9615    1.1426 C   0  0  0  0  0  0  0  0  0  0  0  0
    0.6934   -2.0736    0.2202 O   0  0  0  0  0  0  0  0  0  0  0  0
    1.4935   -0.9857   -0.0629 C   0  0  0  0  0  0  0  0  0  0  0  0
    0.9953    0.1387   -0.9183 C   0  0  0  0  0  0  0  0  0  0  0  0
    1.1033    2.4025    0.0062 H   0  0  0  0  0  0  0  0  0  0  0  0
   -1.4552    0.4818   -1.7726 H   0  0  0  0  0  0  0  0  0  0  0  0
   -2.1501    1.4408   -0.3247 H   0  0  0  0  0  0  0  0  0  0  0  0
   -2.4996   -0.7268    0.7089 H   0  0  0  0  0  0  0  0  0  0  0  0
   -1.1892   -1.4580   -0.4189 H   0  0  0  0  0  0  0  0  0  0  0  0
   -0.7362    0.4777    1.9221 H   0  0  0  0  0  0  0  0  0  0  0  0
    1.2001   -1.1814    2.1302 H   0  0  0  0  0  0  0  0  0  0  0  0
    2.5586   -1.2507   -0.2289 H   0  0  0  0  0  0  0  0  0  0  0  0
    1.8440    0.8623   -1.0332 H   0  0  0  0  0  0  0  0  0  0  0  0
    0.7062   -0.1649   -1.9387 H   0  0  0  0  0  0  0  0  0  0  0  0
  1  2  1  0
  2  3  1  0
  3  4  1  0
  4  5  1  0
  5  6  1  0
  6  7  1  0
  7  8  1  0
  8  9  1  0
  5  2  1  0
  8  6  1  0
  9  2  1  0
  1 10  1  0
  3 11  1  0
  3 12  1  0
  4 13  1  0
  4 14  1  0
  5 15  1  0
  6 16  1  0
  8 17  1  0
  9 18  1  0
  9 19  1  0
M  END
