
     RDKit          3D

 19 21  0  0  0  0  0  0  0  0999 V2000
   -0.4395    1.3396    1.6243 O   0  0  0  0  0  0  0  0  0  0  0  0
   -0.3968    0.7407    0.3645 C   0  0  0  0  0  0  0  0  0  0  0  0
   -1.6414    0.8124   -0.4498 C   0  0  0  0  0  0  0  0  0  0  0  0
   -1.6156   -0.6848   -0.7407 C   0  0  0  0  0  0  0  0  0  0  0  0
   -0.5339   -0.8056    0.3313 C   0  0  0  0  0  0  0  0  0  0  0  0
    0.7100   -0.1445    0.0721 C   0  0  0  0  0  0  0  0  0  0  0  0
    1.5275   -0.1704   -1.1425 C   0  0  0  0  0  0  0  0  0  0  0  0
    2.6309    0.2122   -0.3414 O   0  0  0  0  0  0  0  0  0  0  0  0
    1.9471   -0.1545    0.8433 C   0  0  0  0  0  0  0  0  0  0  0  0
   -0.8991    0.7001    2.2209 H   0  0  0  0  0  0  0  0  0  0  0  0
   -1.6140    1.4433   -1.3540 H   0  0  0  0  0  0  0  0  0  0  0  0
   -2.5301    1.1093    0.1723 H   0  0  0  0  0  0  0  0  0  0  0  0
   -2.5431   -1.2006   -0.5026 H   0  0  0  0  0  0  0  0  0  0  0  0
   -1.1894   -0.8497   -1.7581 H   0  0  0  0  0  0  0  0  0  0  0  0
   -0.8156   -1.2676    1.2947 H   0  0  0  0  0  0  0  0  0  0  0  0
    1.7537   -1.1968   -1.5379 H   0  0  0  0  0  0  0  0  0  0  0  0
    1.3085    0.5380   -1.9538 H   0  0  0  0  0  0  0  0  0  0  0  0
    2.3101   -1.1127    1.2810 H   0  0  0  0  0  0  0  0  0  0  0  0
    2.0306    0.6915    1.5764 H   0  0  0  0  0  0  0  0  0  0  0  0
  1  2  1  0
  2  3  1  0
  3  4  1  0
  4  5  1  0
  5  6  1  0
  6  7  1  0
  7  8  1  0
  8  9  1  0
  5  2  1  0
  9  6  1  0
  6  2  1  0
  1 10  1  0
  3 11  1  0
  3 12  1  0
  4 13  1  0
  4 14  1  0
  5 15  1  0
  7 16  1  0
  7 17  1  0
  9 18  1  0
  9 19  1  0
M  END
