
     RDKit          3D

 19 22  0  0  0  0  0  0  0  0999 V2000
    0.3402    1.8543    1.1887 O   0  0  0  0  0  0  0  0  0  0  0  0
    0.1064    0.8205    0.3588 C   0  0  0  0  0  0  0  0  0  0  0  0
   -1.2720    0.6292   -0.2048 C   0  0  0  0  0  0  0  0  0  0  0  0
   -1.9765   -0.6003    0.1569 C   0  0  0  0  0  0  0  0  0  0  0  0
   -1.0250   -0.7080   -0.9887 C   0  0  0  0  0  0  0  0  0  0  0  0
    0.4399   -0.8577   -0.7259 C   0  0  0  0  0  0  0  0  0  0  0  0
    0.6392   -0.5399    0.7282 C   0  0  0  0  0  0  0  0  0  0  0  0
    1.9871   -0.0254    0.3247 C   0  0  0  0  0  0  0  0  0  0  0  0
    1.0587    0.5139   -0.7378 C   0  0  0  0  0  0  0  0  0  0  0  0
   -0.2625    1.7931    1.9722 H   0  0  0  0  0  0  0  0  0  0  0  0
   -1.6889    1.4215   -0.8283 H   0  0  0  0  0  0  0  0  0  0  0  0
   -3.0498   -0.6553   -0.0736 H   0  0  0  0  0  0  0  0  0  0  0  0
   -1.6807   -1.0771    1.1165 H   0  0  0  0  0  0  0  0  0  0  0  0
   -1.3759   -0.7374   -2.0213 H   0  0  0  0  0  0  0  0  0  0  0  0
    0.9791   -1.6742   -1.1614 H   0  0  0  0  0  0  0  0  0  0  0  0
    0.3945   -1.0946    1.5191 H   0  0  0  0  0  0  0  0  0  0  0  0
    2.6246   -0.8602   -0.0290 H   0  0  0  0  0  0  0  0  0  0  0  0
    2.4488    0.7397    0.9415 H   0  0  0  0  0  0  0  0  0  0  0  0
    1.3127    1.0579   -1.5356 H   0  0  0  0  0  0  0  0  0  0  0  0
  1  2  1  0
  2  3  1  0
  3  4  1  0
  4  5  1  0
  5  6  1  0
  6  7  1  0
  7  8  1  0
  8  9  1  0
  7  2  1  0
  9  2  1  0
  5  3  1  0
  9  6  1  0
  1 10  1  0
  3 11  1  0
  4 12  1  0
  4 13  1  0
  5 14  1  0
  6 15  1  0
  7 16  1  0
  8 17  1  0
  8 18  1  0
  9 19  1  0
M  END
