
     RDKit          3D

 19 21  0  0  0  0  0  0  0  0999 V2000
    2.4663   -0.4616    0.8786 O   0  0  0  0  0  0  0  0  0  0  0  0
    1.4889   -0.2297   -0.0402 C   0  0  0  0  0  0  0  0  0  0  0  0
    0.4232   -1.2561   -0.3371 C   0  0  0  0  0  0  0  0  0  0  0  0
   -0.5991   -0.2082   -0.0659 C   0  0  0  0  0  0  0  0  0  0  0  0
   -1.8108   -0.3762    0.6813 C   0  0  0  0  0  0  0  0  0  0  0  0
   -1.8301   -0.0363   -0.8224 C   0  0  0  0  0  0  0  0  0  0  0  0
    0.4465    0.8134    0.1183 C   0  0  0  0  0  0  0  0  0  0  0  0
    0.4524    1.7159    1.1486 O   0  0  0  0  0  0  0  0  0  0  0  0
    1.4901    0.9540   -0.9452 C   0  0  0  0  0  0  0  0  0  0  0  0
    2.1921   -0.4540    1.8195 H   0  0  0  0  0  0  0  0  0  0  0  0
    0.5115   -1.5388   -1.4279 H   0  0  0  0  0  0  0  0  0  0  0  0
    0.3660   -2.1180    0.3222 H   0  0  0  0  0  0  0  0  0  0  0  0
   -2.1698    0.4320    1.3620 H   0  0  0  0  0  0  0  0  0  0  0  0
   -2.1852   -1.3930    0.9690 H   0  0  0  0  0  0  0  0  0  0  0  0
   -2.2241    0.9803   -1.0818 H   0  0  0  0  0  0  0  0  0  0  0  0
   -2.1899   -0.8274   -1.5161 H   0  0  0  0  0  0  0  0  0  0  0  0
   -0.3014    1.6059    1.7602 H   0  0  0  0  0  0  0  0  0  0  0  0
    1.1427    0.7390   -1.9917 H   0  0  0  0  0  0  0  0  0  0  0  0
    2.3305    1.6589   -0.8315 H   0  0  0  0  0  0  0  0  0  0  0  0
  1  2  1  0
  2  3  1  0
  3  4  1  0
  4  5  1  0
  5  6  1  0
  4  7  1  0
  7  8  1  0
  7  9  1  0
  7  2  1  0
  9  2  1  0
  6  4  1  0
  1 10  1  0
  3 11  1  0
  3 12  1  0
  5 13  1  0
  5 14  1  0
  6 15  1  0
  6 16  1  0
  8 17  1  0
  9 18  1  0
  9 19  1  0
M  END
