
     RDKit          3D

 21 23  0  0  0  0  0  0  0  0999 V2000
   -0.7532   -1.8581   -0.8246 O   0  0  0  0  0  0  0  0  0  0  0  0
   -0.5827   -0.6637   -0.2891 C   0  0  0  0  0  0  0  0  0  0  0  0
   -1.4789    0.4930   -0.7514 C   0  0  0  0  0  0  0  0  0  0  0  0
   -1.1468    1.0595    0.6241 C   0  0  0  0  0  0  0  0  0  0  0  0
   -1.1734   -0.3855    1.1017 C   0  0  0  0  0  0  0  0  0  0  0  0
    0.3296    1.3146    0.5055 C   0  0  0  0  0  0  0  0  0  0  0  0
    0.7356   -0.0087   -0.1656 C   0  0  0  0  0  0  0  0  0  0  0  0
    1.8608   -0.1273   -1.0425 C   0  0  0  0  0  0  0  0  0  0  0  0
    1.8674   -0.7857    0.3422 C   0  0  0  0  0  0  0  0  0  0  0  0
   -1.6697   -2.0269   -1.0938 H   0  0  0  0  0  0  0  0  0  0  0  0
   -2.5332    0.2255   -0.8803 H   0  0  0  0  0  0  0  0  0  0  0  0
   -1.0543    1.1141   -1.5398 H   0  0  0  0  0  0  0  0  0  0  0  0
   -1.7931    1.7638    1.0626 H   0  0  0  0  0  0  0  0  0  0  0  0
   -0.3833   -0.5973    1.8580 H   0  0  0  0  0  0  0  0  0  0  0  0
   -2.1544   -0.8181    1.2701 H   0  0  0  0  0  0  0  0  0  0  0  0
    0.5427    2.1752   -0.1308 H   0  0  0  0  0  0  0  0  0  0  0  0
    0.7639    1.3755    1.5162 H   0  0  0  0  0  0  0  0  0  0  0  0
    1.8804   -0.7600   -1.9295 H   0  0  0  0  0  0  0  0  0  0  0  0
    2.5475    0.7637   -1.1388 H   0  0  0  0  0  0  0  0  0  0  0  0
    1.7210   -1.9007    0.3716 H   0  0  0  0  0  0  0  0  0  0  0  0
    2.4741   -0.3529    1.1341 H   0  0  0  0  0  0  0  0  0  0  0  0
  1  2  1  0
  2  3  1  0
  3  4  1  0
  4  5  1  0
  4  6  1  0
  6  7  1  0
  7  8  1  0
  8  9  1  0
  5  2  1  0
  9  7  1  0
  7  2  1  0
  1 10  1  0
  3 11  1  0
  3 12  1  0
  4 13  1  0
  5 14  1  0
  5 15  1  0
  6 16  1  0
  6 17  1  0
  8 18  1  0
  8 19  1  0
  9 20  1  0
  9 21  1  0
M  END
