
     RDKit          3D

 19 21  0  0  0  0  0  0  0  0999 V2000
   -0.4488    2.3946   -0.1636 O   0  0  0  0  0  0  0  0  0  0  0  0
   -0.2473    1.0426    0.2190 C   0  0  0  0  0  0  0  0  0  0  0  0
    1.1895    0.8338    0.6663 C   0  0  0  0  0  0  0  0  0  0  0  0
    1.8762   -0.1748   -0.3411 C   0  0  0  0  0  0  0  0  0  0  0  0
    1.1034   -1.4333    0.0503 C   0  0  0  0  0  0  0  0  0  0  0  0
   -0.2063   -1.2961    0.1432 C   0  0  0  0  0  0  0  0  0  0  0  0
   -1.6781   -1.2257    0.2702 C   0  0  0  0  0  0  0  0  0  0  0  0
   -1.4285    0.2875    0.5663 C   0  0  0  0  0  0  0  0  0  0  0  0
   -0.5554    0.0173   -0.7143 C   0  0  0  0  0  0  0  0  0  0  0  0
   -0.9493    2.4504   -1.0175 H   0  0  0  0  0  0  0  0  0  0  0  0
    1.2910    0.3378    1.6425 H   0  0  0  0  0  0  0  0  0  0  0  0
    1.8153    1.7277    0.6089 H   0  0  0  0  0  0  0  0  0  0  0  0
    1.6726    0.1197   -1.3701 H   0  0  0  0  0  0  0  0  0  0  0  0
    2.9126   -0.2297   -0.0183 H   0  0  0  0  0  0  0  0  0  0  0  0
    1.5562   -2.3672    0.2425 H   0  0  0  0  0  0  0  0  0  0  0  0
   -2.1578   -1.7607    1.0743 H   0  0  0  0  0  0  0  0  0  0  0  0
   -2.1737   -1.4049   -0.6947 H   0  0  0  0  0  0  0  0  0  0  0  0
   -2.4063    0.8039    0.3949 H   0  0  0  0  0  0  0  0  0  0  0  0
   -1.1654   -0.1229   -1.5588 H   0  0  0  0  0  0  0  0  0  0  0  0
  1  2  1  0
  2  3  1  0
  3  4  1  0
  4  5  1  0
  5  6  2  0
  6  7  1  0
  7  8  1  0
  8  9  1  0
  8  2  1  0
  9  2  1  0
  9  6  1  0
  1 10  1  0
  3 11  1  0
  3 12  1  0
  4 13  1  0
  4 14  1  0
  5 15  1  0
  7 16  1  0
  7 17  1  0
  8 18  1  0
  9 19  1  0
M  END
