
     RDKit          3D

 23 24  0  0  0  0  0  0  0  0999 V2000
    2.4974    0.8522   -0.0773 O   0  0  0  0  0  0  0  0  0  0  0  0
    1.1884    0.3546    0.0297 C   0  0  0  0  0  0  0  0  0  0  0  0
    0.2652    1.3085    0.6237 C   0  0  0  0  0  0  0  0  0  0  0  0
   -1.1452    1.3421    0.2136 C   0  0  0  0  0  0  0  0  0  0  0  0
   -1.7616    0.1143   -0.3220 C   0  0  0  0  0  0  0  0  0  0  0  0
   -1.1791   -1.1729    0.2002 C   0  0  0  0  0  0  0  0  0  0  0  0
    0.1983   -1.4610   -0.2695 C   0  0  0  0  0  0  0  0  0  0  0  0
    0.7885   -0.4017   -1.1656 C   0  0  0  0  0  0  0  0  0  0  0  0
    1.1535   -0.9521    0.8201 C   0  0  0  0  0  0  0  0  0  0  0  0
    2.7136    1.1566   -0.9830 H   0  0  0  0  0  0  0  0  0  0  0  0
    0.6905    2.3496    0.4858 H   0  0  0  0  0  0  0  0  0  0  0  0
    0.3297    1.1782    1.7486 H   0  0  0  0  0  0  0  0  0  0  0  0
   -1.7554    1.7031    1.0772 H   0  0  0  0  0  0  0  0  0  0  0  0
   -1.2916    2.1490   -0.5684 H   0  0  0  0  0  0  0  0  0  0  0  0
   -2.8413    0.0882   -0.0225 H   0  0  0  0  0  0  0  0  0  0  0  0
   -1.8268    0.0989   -1.4520 H   0  0  0  0  0  0  0  0  0  0  0  0
   -1.8743   -1.9950   -0.1189 H   0  0  0  0  0  0  0  0  0  0  0  0
   -1.2736   -1.1373    1.3104 H   0  0  0  0  0  0  0  0  0  0  0  0
    0.4462   -2.4923   -0.5473 H   0  0  0  0  0  0  0  0  0  0  0  0
    0.1539    0.0418   -1.9181 H   0  0  0  0  0  0  0  0  0  0  0  0
    1.6967   -0.8456   -1.6743 H   0  0  0  0  0  0  0  0  0  0  0  0
    0.6834   -0.8324    1.8101 H   0  0  0  0  0  0  0  0  0  0  0  0
    2.1437   -1.4467    0.7994 H   0  0  0  0  0  0  0  0  0  0  0  0
  1  2  1  0
  2  3  1  0
  3  4  1  0
  4  5  1  0
  5  6  1  0
  6  7  1  0
  7  8  1  0
  7  9  1  0
  8  2  1  0
  9  2  1  0
  1 10  1  0
  3 11  1  0
  3 12  1  0
  4 13  1  0
  4 14  1  0
  5 15  1  0
  5 16  1  0
  6 17  1  0
  6 18  1  0
  7 19  1  0
  8 20  1  0
  8 21  1  0
  9 22  1  0
  9 23  1  0
M  END
