
     RDKit          3D

 15 16  0  0  0  0  0  0  0  0999 V2000
    1.3841    0.9342   -1.0955 O   0  0  0  0  0  0  0  0  0  0  0  0
    0.3236    0.5804   -0.3131 C   0  0  0  0  0  0  0  0  0  0  0  0
   -1.0200    0.2541   -0.8926 C   0  0  0  0  0  0  0  0  0  0  0  0
   -1.1383   -0.9804    0.0023 C   0  0  0  0  0  0  0  0  0  0  0  0
    0.2570   -0.6230    0.5135 C   0  0  0  0  0  0  0  0  0  0  0  0
    1.1940   -1.6056    0.5476 O   0  0  0  0  0  0  0  0  0  0  0  0
    0.3904    0.6806    1.1861 C   0  0  0  0  0  0  0  0  0  0  0  0
    1.6396    1.8880   -1.0621 H   0  0  0  0  0  0  0  0  0  0  0  0
   -1.8252    0.9876   -0.6666 H   0  0  0  0  0  0  0  0  0  0  0  0
   -1.0612   -0.0164   -1.9500 H   0  0  0  0  0  0  0  0  0  0  0  0
   -1.1433   -1.9349   -0.5459 H   0  0  0  0  0  0  0  0  0  0  0  0
   -1.9179   -0.8553    0.7830 H   0  0  0  0  0  0  0  0  0  0  0  0
    2.0779   -1.3803    0.1799 H   0  0  0  0  0  0  0  0  0  0  0  0
    1.3446    0.8776    1.6910 H   0  0  0  0  0  0  0  0  0  0  0  0
   -0.5053    1.1936    1.6223 H   0  0  0  0  0  0  0  0  0  0  0  0
  1  2  1  0
  2  3  1  0
  3  4  1  0
  4  5  1  0
  5  6  1  0
  5  7  1  0
  5  2  1  0
  7  2  1  0
  1  8  1  0
  3  9  1  0
  3 10  1  0
  4 11  1  0
  4 12  1  0
  6 13  1  0
  7 14  1  0
  7 15  1  0
M  END
