
     RDKit          3D

 19 21  0  0  0  0  0  0  0  0999 V2000
   -2.0889    1.1411   -0.1512 O   0  0  0  0  0  0  0  0  0  0  0  0
   -0.9632    0.3839   -0.0006 C   0  0  0  0  0  0  0  0  0  0  0  0
   -1.1342   -1.1103    0.0125 C   0  0  0  0  0  0  0  0  0  0  0  0
   -0.3206   -1.6373   -0.9589 O   0  0  0  0  0  0  0  0  0  0  0  0
    0.7458   -0.7676   -1.1317 C   0  0  0  0  0  0  0  0  0  0  0  0
    1.6111   -0.5550    0.0929 C   0  0  0  0  0  0  0  0  0  0  0  0
    1.0783    0.8503    0.1671 C   0  0  0  0  0  0  0  0  0  0  0  0
   -0.0758    0.9251    1.1253 C   0  0  0  0  0  0  0  0  0  0  0  0
    0.1622    0.5848   -0.9476 C   0  0  0  0  0  0  0  0  0  0  0  0
   -2.8263    0.7476    0.3776 H   0  0  0  0  0  0  0  0  0  0  0  0
   -0.9106   -1.4921    1.0195 H   0  0  0  0  0  0  0  0  0  0  0  0
   -2.1946   -1.3210   -0.2564 H   0  0  0  0  0  0  0  0  0  0  0  0
    1.3336   -0.9457   -2.0273 H   0  0  0  0  0  0  0  0  0  0  0  0
    2.6890   -0.6514   -0.0506 H   0  0  0  0  0  0  0  0  0  0  0  0
    1.3079   -1.2040    0.9622 H   0  0  0  0  0  0  0  0  0  0  0  0
    1.7772    1.6653    0.1366 H   0  0  0  0  0  0  0  0  0  0  0  0
   -0.3170    1.9451    1.4496 H   0  0  0  0  0  0  0  0  0  0  0  0
    0.0606    0.1877    1.9548 H   0  0  0  0  0  0  0  0  0  0  0  0
    0.0655    1.2536   -1.7738 H   0  0  0  0  0  0  0  0  0  0  0  0
  1  2  1  0
  2  3  1  0
  3  4  1  0
  4  5  1  0
  5  6  1  0
  6  7  1  0
  7  8  1  0
  7  9  1  0
  8  2  1  0
  9  2  1  0
  9  5  1  0
  1 10  1  0
  3 11  1  0
  3 12  1  0
  5 13  1  0
  6 14  1  0
  6 15  1  0
  7 16  1  0
  8 17  1  0
  8 18  1  0
  9 19  1  0
M  END
