
     RDKit          3D

 18 19  0  0  0  0  0  0  0  0999 V2000
    1.6915    1.3933   -0.1110 O   0  0  0  0  0  0  0  0  0  0  0  0
    0.8551    0.3049   -0.1739 C   0  0  0  0  0  0  0  0  0  0  0  0
   -0.2398    0.3231   -1.1745 C   0  0  0  0  0  0  0  0  0  0  0  0
   -1.5091    0.1983   -0.3865 C   0  0  0  0  0  0  0  0  0  0  0  0
   -1.1694   -0.3234    0.9699 C   0  0  0  0  0  0  0  0  0  0  0  0
    0.2778   -0.0212    1.1707 C   0  0  0  0  0  0  0  0  0  0  0  0
    1.1325   -1.0941    1.3038 O   0  0  0  0  0  0  0  0  0  0  0  0
    1.4734   -1.0469   -0.0368 C   0  0  0  0  0  0  0  0  0  0  0  0
    1.3196    2.1810   -0.5530 H   0  0  0  0  0  0  0  0  0  0  0  0
   -0.2032    1.2213   -1.8210 H   0  0  0  0  0  0  0  0  0  0  0  0
   -0.2132   -0.5499   -1.8870 H   0  0  0  0  0  0  0  0  0  0  0  0
   -2.2241   -0.4925   -0.8618 H   0  0  0  0  0  0  0  0  0  0  0  0
   -2.0129    1.1966   -0.3630 H   0  0  0  0  0  0  0  0  0  0  0  0
   -1.3963   -1.3947    1.1180 H   0  0  0  0  0  0  0  0  0  0  0  0
   -1.7550    0.2295    1.7288 H   0  0  0  0  0  0  0  0  0  0  0  0
    0.4781    0.7265    1.9726 H   0  0  0  0  0  0  0  0  0  0  0  0
    0.9442   -1.8420   -0.6264 H   0  0  0  0  0  0  0  0  0  0  0  0
    2.5508   -1.0097   -0.2689 H   0  0  0  0  0  0  0  0  0  0  0  0
  1  2  1  0
  2  3  1  0
  3  4  1  0
  4  5  1  0
  5  6  1  0
  6  7  1  0
  7  8  1  0
  6  2  1  0
  8  2  1  0
  1  9  1  0
  3 10  1  0
  3 11  1  0
  4 12  1  0
  4 13  1  0
  5 14  1  0
  5 15  1  0
  6 16  1  0
  8 17  1  0
  8 18  1  0
M  END
