
     RDKit          3D

 18 19  0  0  0  0  0  0  0  0999 V2000
   -1.6425    0.6865    1.3993 O   0  0  0  0  0  0  0  0  0  0  0  0
   -0.7167    0.4642    0.3961 C   0  0  0  0  0  0  0  0  0  0  0  0
    0.5699    1.2532    0.3740 C   0  0  0  0  0  0  0  0  0  0  0  0
    1.5222    0.3683   -0.4354 C   0  0  0  0  0  0  0  0  0  0  0  0
    1.0647   -1.0061   -0.0183 C   0  0  0  0  0  0  0  0  0  0  0  0
   -0.4091   -0.9230   -0.0638 C   0  0  0  0  0  0  0  0  0  0  0  0
   -1.0751   -2.0104    0.5268 O   0  0  0  0  0  0  0  0  0  0  0  0
   -1.1721   -0.0374   -0.9514 C   0  0  0  0  0  0  0  0  0  0  0  0
   -1.5268    1.6112    1.7229 H   0  0  0  0  0  0  0  0  0  0  0  0
    0.3705    2.2044   -0.1615 H   0  0  0  0  0  0  0  0  0  0  0  0
    1.0083    1.4201    1.3588 H   0  0  0  0  0  0  0  0  0  0  0  0
    2.5738    0.5643   -0.1915 H   0  0  0  0  0  0  0  0  0  0  0  0
    1.2675    0.5032   -1.4948 H   0  0  0  0  0  0  0  0  0  0  0  0
    1.3583   -1.1290    1.0669 H   0  0  0  0  0  0  0  0  0  0  0  0
    1.5322   -1.8194   -0.5586 H   0  0  0  0  0  0  0  0  0  0  0  0
   -1.7144   -2.3896   -0.1411 H   0  0  0  0  0  0  0  0  0  0  0  0
   -0.7432    0.4645   -1.8359 H   0  0  0  0  0  0  0  0  0  0  0  0
   -2.2676   -0.2252   -0.9925 H   0  0  0  0  0  0  0  0  0  0  0  0
  1  2  1  0
  2  3  1  0
  3  4  1  0
  4  5  1  0
  5  6  1  0
  6  7  1  0
  6  8  1  0
  6  2  1  0
  8  2  1  0
  1  9  1  0
  3 10  1  0
  3 11  1  0
  4 12  1  0
  4 13  1  0
  5 14  1  0
  5 15  1  0
  7 16  1  0
  8 17  1  0
  8 18  1  0
M  END
