
     RDKit          3D

 16 18  0  0  0  0  0  0  0  0999 V2000
    1.4130    1.7272   -0.2661 O   0  0  0  0  0  0  0  0  0  0  0  0
    0.6608    0.5941    0.0866 C   0  0  0  0  0  0  0  0  0  0  0  0
    1.1583   -0.2703    1.1705 C   0  0  0  0  0  0  0  0  0  0  0  0
    1.1273   -0.7614   -0.2259 C   0  0  0  0  0  0  0  0  0  0  0  0
    0.0621   -1.5574   -0.5714 O   0  0  0  0  0  0  0  0  0  0  0  0
   -1.0444   -0.7758   -0.7619 C   0  0  0  0  0  0  0  0  0  0  0  0
   -1.7632   -0.1986    0.4304 C   0  0  0  0  0  0  0  0  0  0  0  0
   -0.7743    0.6071   -0.3427 C   0  0  0  0  0  0  0  0  0  0  0  0
    1.5629    2.2988    0.5280 H   0  0  0  0  0  0  0  0  0  0  0  0
    2.1612   -0.0115    1.5700 H   0  0  0  0  0  0  0  0  0  0  0  0
    0.5016   -0.7774    1.8952 H   0  0  0  0  0  0  0  0  0  0  0  0
    2.0503   -0.8524   -0.8374 H   0  0  0  0  0  0  0  0  0  0  0  0
   -1.6874   -1.0022   -1.6532 H   0  0  0  0  0  0  0  0  0  0  0  0
   -2.8215    0.1234    0.2857 H   0  0  0  0  0  0  0  0  0  0  0  0
   -1.5173   -0.5666    1.4472 H   0  0  0  0  0  0  0  0  0  0  0  0
   -1.0895    1.4232   -1.0043 H   0  0  0  0  0  0  0  0  0  0  0  0
  1  2  1  0
  2  3  1  0
  3  4  1  0
  4  5  1  0
  5  6  1  0
  6  7  1  0
  7  8  1  0
  4  2  1  0
  8  6  1  0
  8  2  1  0
  1  9  1  0
  3 10  1  0
  3 11  1  0
  4 12  1  0
  6 13  1  0
  7 14  1  0
  7 15  1  0
  8 16  1  0
M  END
