
     RDKit          3D

 17 20  0  0  0  0  0  0  0  0999 V2000
    2.1515   -0.9149   -0.6902 O   0  0  0  0  0  0  0  0  0  0  0  0
    0.9723   -0.3215   -0.3806 C   0  0  0  0  0  0  0  0  0  0  0  0
    0.7708    0.7388    0.5893 C   0  0  0  0  0  0  0  0  0  0  0  0
   -0.5190    1.4097    0.1470 C   0  0  0  0  0  0  0  0  0  0  0  0
   -1.2892    0.2580   -0.3642 C   0  0  0  0  0  0  0  0  0  0  0  0
   -1.0271   -0.8422    0.6205 C   0  0  0  0  0  0  0  0  0  0  0  0
   -0.9605   -1.6994   -0.5073 O   0  0  0  0  0  0  0  0  0  0  0  0
   -0.3004   -0.6103   -1.1250 C   0  0  0  0  0  0  0  0  0  0  0  0
    0.3893   -0.5727    1.0574 C   0  0  0  0  0  0  0  0  0  0  0  0
    2.8772   -0.2183   -0.5909 H   0  0  0  0  0  0  0  0  0  0  0  0
    1.6089    1.3267    0.9278 H   0  0  0  0  0  0  0  0  0  0  0  0
   -1.0353    1.9126    0.9657 H   0  0  0  0  0  0  0  0  0  0  0  0
   -0.2503    2.0734   -0.6966 H   0  0  0  0  0  0  0  0  0  0  0  0
   -2.2679    0.3746   -0.7734 H   0  0  0  0  0  0  0  0  0  0  0  0
   -1.7658   -1.0766    1.3605 H   0  0  0  0  0  0  0  0  0  0  0  0
   -0.3121   -0.5722   -2.1903 H   0  0  0  0  0  0  0  0  0  0  0  0
    0.9576   -1.2657    1.6502 H   0  0  0  0  0  0  0  0  0  0  0  0
  1  2  1  0
  2  3  1  0
  3  4  1  0
  4  5  1  0
  5  6  1  0
  6  7  1  0
  7  8  1  0
  6  9  1  0
  8  2  1  0
  9  2  1  0
  9  3  1  0
  8  5  1  0
  1 10  1  0
  3 11  1  0
  4 12  1  0
  4 13  1  0
  5 14  1  0
  6 15  1  0
  8 16  1  0
  9 17  1  0
M  END
