
     RDKit          3D

 17 20  0  0  0  0  0  0  0  0999 V2000
   -1.8767   -1.6379   -0.1384 O   0  0  0  0  0  0  0  0  0  0  0  0
   -1.0623   -0.6383    0.0778 C   0  0  0  0  0  0  0  0  0  0  0  0
   -0.0685   -0.5018    1.2091 C   0  0  0  0  0  0  0  0  0  0  0  0
    1.1408   -1.0390    0.8578 O   0  0  0  0  0  0  0  0  0  0  0  0
    1.7333   -0.3070   -0.1229 C   0  0  0  0  0  0  0  0  0  0  0  0
    0.7995    0.8171   -0.5162 C   0  0  0  0  0  0  0  0  0  0  0  0
    0.0345    0.9481    0.7830 C   0  0  0  0  0  0  0  0  0  0  0  0
   -1.2124    0.7857    0.0170 C   0  0  0  0  0  0  0  0  0  0  0  0
   -0.4770    0.2356   -1.0746 C   0  0  0  0  0  0  0  0  0  0  0  0
   -1.8563   -2.1044   -0.9921 H   0  0  0  0  0  0  0  0  0  0  0  0
   -0.4316   -0.6879    2.2129 H   0  0  0  0  0  0  0  0  0  0  0  0
    1.9220   -0.9043   -1.0314 H   0  0  0  0  0  0  0  0  0  0  0  0
    2.6752    0.1976    0.2403 H   0  0  0  0  0  0  0  0  0  0  0  0
    1.2089    1.6974   -0.9616 H   0  0  0  0  0  0  0  0  0  0  0  0
    0.2312    1.7085    1.4642 H   0  0  0  0  0  0  0  0  0  0  0  0
   -2.0766    1.4015    0.0498 H   0  0  0  0  0  0  0  0  0  0  0  0
   -0.6840    0.0292   -2.0747 H   0  0  0  0  0  0  0  0  0  0  0  0
  1  2  1  0
  2  3  1  0
  3  4  1  0
  4  5  1  0
  5  6  1  0
  6  7  1  0
  7  8  1  0
  8  9  1  0
  8  2  1  0
  9  2  1  0
  7  3  1  0
  9  6  1  0
  1 10  1  0
  3 11  1  0
  5 12  1  0
  5 13  1  0
  6 14  1  0
  7 15  1  0
  8 16  1  0
  9 17  1  0
M  END
