
     RDKit          3D

 18 19  0  0  0  0  0  0  0  0999 V2000
   -2.1046    0.2740   -0.6450 O   0  0  0  0  0  0  0  0  0  0  0  0
   -0.8701    0.0740   -0.1870 C   0  0  0  0  0  0  0  0  0  0  0  0
    0.0247    1.2565   -0.0160 C   0  0  0  0  0  0  0  0  0  0  0  0
    1.4016    0.5939    0.1562 C   0  0  0  0  0  0  0  0  0  0  0  0
    1.1649   -0.8692   -0.0373 C   0  0  0  0  0  0  0  0  0  0  0  0
    0.0139   -0.8307   -1.0627 C   0  0  0  0  0  0  0  0  0  0  0  0
    0.4846   -1.3455    1.0781 O   0  0  0  0  0  0  0  0  0  0  0  0
   -0.7645   -0.7491    1.1004 C   0  0  0  0  0  0  0  0  0  0  0  0
   -2.4351    1.2282   -0.6214 H   0  0  0  0  0  0  0  0  0  0  0  0
   -0.2217    1.7386    0.9618 H   0  0  0  0  0  0  0  0  0  0  0  0
    0.0141    1.9767   -0.8319 H   0  0  0  0  0  0  0  0  0  0  0  0
    1.7968    0.7574    1.1795 H   0  0  0  0  0  0  0  0  0  0  0  0
    2.0601    1.0471   -0.6117 H   0  0  0  0  0  0  0  0  0  0  0  0
    1.9950   -1.4647   -0.3514 H   0  0  0  0  0  0  0  0  0  0  0  0
   -0.4213   -1.8208   -1.1590 H   0  0  0  0  0  0  0  0  0  0  0  0
    0.3147   -0.3383   -1.9850 H   0  0  0  0  0  0  0  0  0  0  0  0
   -0.8535   -0.0511    1.9334 H   0  0  0  0  0  0  0  0  0  0  0  0
   -1.5996   -1.4769    1.0989 H   0  0  0  0  0  0  0  0  0  0  0  0
  1  2  1  0
  2  3  1  0
  3  4  1  0
  4  5  1  0
  5  6  1  0
  5  7  1  0
  7  8  1  0
  6  2  1  0
  8  2  1  0
  1  9  1  0
  3 10  1  0
  3 11  1  0
  4 12  1  0
  4 13  1  0
  5 14  1  0
  6 15  1  0
  6 16  1  0
  8 17  1  0
  8 18  1  0
M  END
