
     RDKit          3D

 19 22  0  0  0  0  0  0  0  0999 V2000
    2.4589   -0.6916   -0.5215 O   0  0  0  0  0  0  0  0  0  0  0  0
    1.2394   -0.2864   -0.1798 C   0  0  0  0  0  0  0  0  0  0  0  0
    0.1128   -0.0066   -1.1273 C   0  0  0  0  0  0  0  0  0  0  0  0
   -0.8683   -1.0700   -0.5980 C   0  0  0  0  0  0  0  0  0  0  0  0
   -0.8758   -0.5390    0.8449 C   0  0  0  0  0  0  0  0  0  0  0  0
   -1.3587    0.8812    0.5182 C   0  0  0  0  0  0  0  0  0  0  0  0
   -0.1658    1.2487   -0.3795 C   0  0  0  0  0  0  0  0  0  0  0  0
    0.9483    0.9225    0.5538 C   0  0  0  0  0  0  0  0  0  0  0  0
    0.5829   -0.3819    1.1278 C   0  0  0  0  0  0  0  0  0  0  0  0
    2.5109   -1.2837   -1.3067 H   0  0  0  0  0  0  0  0  0  0  0  0
    0.2874    0.0046   -2.1764 H   0  0  0  0  0  0  0  0  0  0  0  0
   -1.8425   -0.9946   -1.0721 H   0  0  0  0  0  0  0  0  0  0  0  0
   -0.4043   -2.0542   -0.5842 H   0  0  0  0  0  0  0  0  0  0  0  0
   -1.4744   -1.0797    1.5227 H   0  0  0  0  0  0  0  0  0  0  0  0
   -2.2666    0.7828   -0.0762 H   0  0  0  0  0  0  0  0  0  0  0  0
   -1.4183    1.5098    1.3993 H   0  0  0  0  0  0  0  0  0  0  0  0
   -0.2059    2.1888   -0.8767 H   0  0  0  0  0  0  0  0  0  0  0  0
    1.6961    1.5976    0.8959 H   0  0  0  0  0  0  0  0  0  0  0  0
    1.0440   -0.7483    2.0355 H   0  0  0  0  0  0  0  0  0  0  0  0
  1  2  1  0
  2  3  1  0
  3  4  1  0
  4  5  1  0
  5  6  1  0
  6  7  1  0
  7  8  1  0
  8  9  1  0
  8  2  1  0
  9  2  1  0
  7  3  1  0
  9  5  1  0
  1 10  1  0
  3 11  1  0
  4 12  1  0
  4 13  1  0
  5 14  1  0
  6 15  1  0
  6 16  1  0
  7 17  1  0
  8 18  1  0
  9 19  1  0
M  END
