
     RDKit          3D

 19 21  0  0  0  0  0  0  0  0999 V2000
   -0.0685    1.3826    1.6924 O   0  0  0  0  0  0  0  0  0  0  0  0
   -0.1535    0.6377    0.5752 C   0  0  0  0  0  0  0  0  0  0  0  0
   -1.4749    0.4296   -0.0805 C   0  0  0  0  0  0  0  0  0  0  0  0
   -1.3717   -0.9546   -0.7180 C   0  0  0  0  0  0  0  0  0  0  0  0
    0.1266   -1.1430   -0.7723 C   0  0  0  0  0  0  0  0  0  0  0  0
    0.6265   -0.0285   -1.4933 O   0  0  0  0  0  0  0  0  0  0  0  0
    0.9227    0.8648   -0.4923 C   0  0  0  0  0  0  0  0  0  0  0  0
    1.8135   -0.0118    0.4026 C   0  0  0  0  0  0  0  0  0  0  0  0
    0.5149   -0.7451    0.6173 C   0  0  0  0  0  0  0  0  0  0  0  0
   -0.1874    2.3386    1.4598 H   0  0  0  0  0  0  0  0  0  0  0  0
   -2.3178    0.4751    0.6080 H   0  0  0  0  0  0  0  0  0  0  0  0
   -1.5825    1.1983   -0.8994 H   0  0  0  0  0  0  0  0  0  0  0  0
   -1.7543   -1.6805    0.0402 H   0  0  0  0  0  0  0  0  0  0  0  0
   -1.8666   -1.0147   -1.6822 H   0  0  0  0  0  0  0  0  0  0  0  0
    0.4723   -2.0899   -1.1275 H   0  0  0  0  0  0  0  0  0  0  0  0
    1.2354    1.8501   -0.6882 H   0  0  0  0  0  0  0  0  0  0  0  0
    2.1970    0.4841    1.2913 H   0  0  0  0  0  0  0  0  0  0  0  0
    2.5090   -0.6352   -0.1806 H   0  0  0  0  0  0  0  0  0  0  0  0
    0.3591   -1.3577    1.4473 H   0  0  0  0  0  0  0  0  0  0  0  0
  1  2  1  0
  2  3  1  0
  3  4  1  0
  4  5  1  0
  5  6  1  0
  6  7  1  0
  7  8  1  0
  8  9  1  0
  7  2  1  0
  9  2  1  0
  9  5  1  0
  1 10  1  0
  3 11  1  0
  3 12  1  0
  4 13  1  0
  4 14  1  0
  5 15  1  0
  7 16  1  0
  8 17  1  0
  8 18  1  0
  9 19  1  0
M  END
