
     RDKit          3D

 19 21  0  0  0  0  0  0  0  0999 V2000
   -1.2442   -0.9084    1.4141 O   0  0  0  0  0  0  0  0  0  0  0  0
   -0.8103   -0.3105    0.3300 C   0  0  0  0  0  0  0  0  0  0  0  0
   -1.0863   -0.8719   -1.0482 C   0  0  0  0  0  0  0  0  0  0  0  0
   -0.4821    0.1494   -1.8275 O   0  0  0  0  0  0  0  0  0  0  0  0
   -0.0073    1.0574   -0.8813 C   0  0  0  0  0  0  0  0  0  0  0  0
   -1.2184    1.1521    0.0645 C   0  0  0  0  0  0  0  0  0  0  0  0
    0.5779    0.1805    0.1587 C   0  0  0  0  0  0  0  0  0  0  0  0
    1.5503    0.4681    1.1402 C   0  0  0  0  0  0  0  0  0  0  0  0
    1.7686   -0.6236    0.0411 C   0  0  0  0  0  0  0  0  0  0  0  0
   -1.5441   -1.8515    1.2531 H   0  0  0  0  0  0  0  0  0  0  0  0
   -0.5296   -1.8170   -1.1286 H   0  0  0  0  0  0  0  0  0  0  0  0
   -2.1588   -0.9412   -1.2190 H   0  0  0  0  0  0  0  0  0  0  0  0
    0.4425    1.9557   -1.1936 H   0  0  0  0  0  0  0  0  0  0  0  0
   -1.0792    1.8208    0.9141 H   0  0  0  0  0  0  0  0  0  0  0  0
   -2.1871    1.1892   -0.4654 H   0  0  0  0  0  0  0  0  0  0  0  0
    1.5106    0.0370    2.1605 H   0  0  0  0  0  0  0  0  0  0  0  0
    2.2505    1.3381    1.0852 H   0  0  0  0  0  0  0  0  0  0  0  0
    2.5023   -0.3607   -0.7503 H   0  0  0  0  0  0  0  0  0  0  0  0
    1.7447   -1.6635    0.3631 H   0  0  0  0  0  0  0  0  0  0  0  0
  1  2  1  0
  2  3  1  0
  3  4  1  0
  4  5  1  0
  5  6  1  0
  5  7  1  0
  7  8  1  0
  8  9  1  0
  6  2  1  0
  9  7  1  0
  7  2  1  0
  1 10  1  0
  3 11  1  0
  3 12  1  0
  5 13  1  0
  6 14  1  0
  6 15  1  0
  8 16  1  0
  8 17  1  0
  9 18  1  0
  9 19  1  0
M  END
