
     RDKit          3D

 19 21  0  0  0  0  0  0  0  0999 V2000
    1.6689   -0.8237    1.1626 O   0  0  0  0  0  0  0  0  0  0  0  0
    0.6116   -0.4731    0.3742 C   0  0  0  0  0  0  0  0  0  0  0  0
   -0.7365   -1.0235    0.7513 C   0  0  0  0  0  0  0  0  0  0  0  0
   -1.7523    0.0692    0.4985 C   0  0  0  0  0  0  0  0  0  0  0  0
   -0.9887    1.0656   -0.3763 C   0  0  0  0  0  0  0  0  0  0  0  0
    0.0077    0.5758   -1.3431 C   0  0  0  0  0  0  0  0  0  0  0  0
    0.8240   -0.6533   -1.1268 C   0  0  0  0  0  0  0  0  0  0  0  0
    0.3769    0.9594    0.1204 C   0  0  0  0  0  0  0  0  0  0  0  0
    1.2902    1.9400    0.2056 O   0  0  0  0  0  0  0  0  0  0  0  0
    1.8727   -1.7708    1.1310 H   0  0  0  0  0  0  0  0  0  0  0  0
   -0.7709   -1.4019    1.7905 H   0  0  0  0  0  0  0  0  0  0  0  0
   -1.0285   -1.8696    0.0622 H   0  0  0  0  0  0  0  0  0  0  0  0
   -1.9830    0.6389    1.4406 H   0  0  0  0  0  0  0  0  0  0  0  0
   -2.6684   -0.2923    0.0151 H   0  0  0  0  0  0  0  0  0  0  0  0
   -1.4037    2.0577   -0.5428 H   0  0  0  0  0  0  0  0  0  0  0  0
    0.3293    1.2450   -2.1349 H   0  0  0  0  0  0  0  0  0  0  0  0
    0.4452   -1.5930   -1.5353 H   0  0  0  0  0  0  0  0  0  0  0  0
    1.9083   -0.4443   -1.3478 H   0  0  0  0  0  0  0  0  0  0  0  0
    1.9972    1.7936    0.8550 H   0  0  0  0  0  0  0  0  0  0  0  0
  1  2  1  0
  2  3  1  0
  3  4  1  0
  4  5  1  0
  5  6  1  0
  6  7  1  0
  6  8  1  0
  8  9  1  0
  7  2  1  0
  8  2  1  0
  8  5  1  0
  1 10  1  0
  3 11  1  0
  3 12  1  0
  4 13  1  0
  4 14  1  0
  5 15  1  0
  6 16  1  0
  7 17  1  0
  7 18  1  0
  9 19  1  0
M  END
