
     RDKit          3D

 18 19  0  0  0  0  0  0  0  0999 V2000
   -1.6964    1.7508    0.0314 O   0  0  0  0  0  0  0  0  0  0  0  0
   -0.7022    0.8123    0.0800 C   0  0  0  0  0  0  0  0  0  0  0  0
    0.6839    1.2924    0.2150 C   0  0  0  0  0  0  0  0  0  0  0  0
    1.6588    0.4010   -0.0663 C   0  0  0  0  0  0  0  0  0  0  0  0
    1.2941   -1.0285    0.0723 C   0  0  0  0  0  0  0  0  0  0  0  0
   -0.1991   -1.2078    0.0543 C   0  0  0  0  0  0  0  0  0  0  0  0
   -0.7648   -0.2633   -1.0124 C   0  0  0  0  0  0  0  0  0  0  0  0
   -0.8939   -0.3184    1.0736 C   0  0  0  0  0  0  0  0  0  0  0  0
   -1.6010    2.2635   -0.8094 H   0  0  0  0  0  0  0  0  0  0  0  0
    0.9308    2.3005    0.5214 H   0  0  0  0  0  0  0  0  0  0  0  0
    2.6482    0.7211   -0.3750 H   0  0  0  0  0  0  0  0  0  0  0  0
    1.7714   -1.5098    0.9459 H   0  0  0  0  0  0  0  0  0  0  0  0
    1.6911   -1.5480   -0.8314 H   0  0  0  0  0  0  0  0  0  0  0  0
   -0.5441   -2.2345   -0.0056 H   0  0  0  0  0  0  0  0  0  0  0  0
   -1.8296   -0.4691   -1.2250 H   0  0  0  0  0  0  0  0  0  0  0  0
   -0.1072   -0.0933   -1.8624 H   0  0  0  0  0  0  0  0  0  0  0  0
   -1.9589   -0.6680    1.1635 H   0  0  0  0  0  0  0  0  0  0  0  0
   -0.3811   -0.2009    2.0303 H   0  0  0  0  0  0  0  0  0  0  0  0
  1  2  1  0
  2  3  1  0
  3  4  2  0
  4  5  1  0
  5  6  1  0
  6  7  1  0
  6  8  1  0
  7  2  1  0
  8  2  1  0
  1  9  1  0
  3 10  1  0
  4 11  1  0
  5 12  1  0
  5 13  1  0
  6 14  1  0
  7 15  1  0
  7 16  1  0
  8 17  1  0
  8 18  1  0
M  END
