
     RDKit          3D

 21 23  0  0  0  0  0  0  0  0999 V2000
   -0.5270    2.2474    0.7744 O   0  0  0  0  0  0  0  0  0  0  0  0
   -0.1742    1.0142    0.3409 C   0  0  0  0  0  0  0  0  0  0  0  0
    0.9024    0.3352    1.1542 C   0  0  0  0  0  0  0  0  0  0  0  0
    1.5248   -0.6542    0.1728 C   0  0  0  0  0  0  0  0  0  0  0  0
    0.6648   -0.5395   -1.0701 C   0  0  0  0  0  0  0  0  0  0  0  0
    0.4405    0.9851   -1.0484 C   0  0  0  0  0  0  0  0  0  0  0  0
   -0.7394   -1.0000   -0.8459 C   0  0  0  0  0  0  0  0  0  0  0  0
   -1.2850   -1.3291    0.4791 C   0  0  0  0  0  0  0  0  0  0  0  0
   -1.3419    0.0847    0.1034 C   0  0  0  0  0  0  0  0  0  0  0  0
   -1.4518    2.1809    1.1718 H   0  0  0  0  0  0  0  0  0  0  0  0
    0.5341   -0.1461    2.0653 H   0  0  0  0  0  0  0  0  0  0  0  0
    1.6293    1.1098    1.4566 H   0  0  0  0  0  0  0  0  0  0  0  0
    1.5152   -1.6826    0.5455 H   0  0  0  0  0  0  0  0  0  0  0  0
    2.5470   -0.3183   -0.1282 H   0  0  0  0  0  0  0  0  0  0  0  0
    1.1374   -0.8779   -1.9797 H   0  0  0  0  0  0  0  0  0  0  0  0
   -0.3222    1.2041   -1.7906 H   0  0  0  0  0  0  0  0  0  0  0  0
    1.3735    1.5329   -1.1249 H   0  0  0  0  0  0  0  0  0  0  0  0
   -1.3017   -1.2172   -1.7612 H   0  0  0  0  0  0  0  0  0  0  0  0
   -0.6451   -1.6387    1.3298 H   0  0  0  0  0  0  0  0  0  0  0  0
   -2.2538   -1.8727    0.4696 H   0  0  0  0  0  0  0  0  0  0  0  0
   -2.2271    0.5821   -0.3146 H   0  0  0  0  0  0  0  0  0  0  0  0
  1  2  1  0
  2  3  1  0
  3  4  1  0
  4  5  1  0
  5  6  1  0
  5  7  1  0
  7  8  1  0
  8  9  1  0
  6  2  1  0
  9  7  1  0
  9  2  1  0
  1 10  1  0
  3 11  1  0
  3 12  1  0
  4 13  1  0
  4 14  1  0
  5 15  1  0
  6 16  1  0
  6 17  1  0
  7 18  1  0
  8 19  1  0
  8 20  1  0
  9 21  1  0
M  END
