
     RDKit          3D

 15 18  0  0  0  0  0  0  0  0999 V2000
    2.2091    0.4375   -0.3507 O   0  0  0  0  0  0  0  0  0  0  0  0
    0.9268    0.2213   -0.1706 C   0  0  0  0  0  0  0  0  0  0  0  0
   -0.1778    1.2324   -0.1528 C   0  0  0  0  0  0  0  0  0  0  0  0
   -1.0969    0.9091   -1.1847 O   0  0  0  0  0  0  0  0  0  0  0  0
   -1.2422   -0.2998   -0.5453 C   0  0  0  0  0  0  0  0  0  0  0  0
   -1.1614    0.5177    0.7500 C   0  0  0  0  0  0  0  0  0  0  0  0
   -0.4592   -0.2386    1.6353 O   0  0  0  0  0  0  0  0  0  0  0  0
    0.5436   -0.8258    0.8878 C   0  0  0  0  0  0  0  0  0  0  0  0
    0.1302   -0.9894   -0.4826 C   0  0  0  0  0  0  0  0  0  0  0  0
    2.7197   -0.1859   -0.8915 H   0  0  0  0  0  0  0  0  0  0  0  0
    0.0274    2.2618    0.0176 H   0  0  0  0  0  0  0  0  0  0  0  0
   -2.0953   -0.9087   -0.6929 H   0  0  0  0  0  0  0  0  0  0  0  0
   -2.0488    1.0392    1.0423 H   0  0  0  0  0  0  0  0  0  0  0  0
    1.3282   -1.4271    1.3290 H   0  0  0  0  0  0  0  0  0  0  0  0
    0.3966   -1.7437   -1.1909 H   0  0  0  0  0  0  0  0  0  0  0  0
  1  2  1  0
  2  3  1  0
  3  4  1  0
  4  5  1  0
  5  6  1  0
  6  7  1  0
  7  8  1  0
  8  9  1  0
  8  2  1  0
  9  2  1  0
  6  3  1  0
  9  5  1  0
  1 10  1  0
  3 11  1  0
  5 12  1  0
  6 13  1  0
  8 14  1  0
  9 15  1  0
M  END
