
     RDKit          3D

 21 22  0  0  0  0  0  0  0  0999 V2000
    2.1870   -0.5352   -0.8269 O   0  0  0  0  0  0  0  0  0  0  0  0
    0.9534   -0.2210   -0.2965 C   0  0  0  0  0  0  0  0  0  0  0  0
    0.6131    1.2532   -0.5338 C   0  0  0  0  0  0  0  0  0  0  0  0
   -0.6380    1.5172    0.2912 C   0  0  0  0  0  0  0  0  0  0  0  0
   -1.1535    0.2389    0.9022 C   0  0  0  0  0  0  0  0  0  0  0  0
   -1.4357   -0.7570   -0.2091 C   0  0  0  0  0  0  0  0  0  0  0  0
   -0.1617   -1.0038   -0.9938 C   0  0  0  0  0  0  0  0  0  0  0  0
   -0.2678   -0.3428    1.7830 O   0  0  0  0  0  0  0  0  0  0  0  0
    0.9456   -0.5409    1.1666 C   0  0  0  0  0  0  0  0  0  0  0  0
    2.3547   -1.4848   -0.6549 H   0  0  0  0  0  0  0  0  0  0  0  0
    1.4379    1.9195   -0.2968 H   0  0  0  0  0  0  0  0  0  0  0  0
    0.3693    1.3386   -1.6271 H   0  0  0  0  0  0  0  0  0  0  0  0
   -1.4177    1.9289   -0.3581 H   0  0  0  0  0  0  0  0  0  0  0  0
   -0.3840    2.2572    1.0623 H   0  0  0  0  0  0  0  0  0  0  0  0
   -2.1067    0.4900    1.4165 H   0  0  0  0  0  0  0  0  0  0  0  0
   -1.8675   -1.6915    0.1734 H   0  0  0  0  0  0  0  0  0  0  0  0
   -2.2074   -0.2717   -0.8593 H   0  0  0  0  0  0  0  0  0  0  0  0
    0.0751   -2.0671   -1.0953 H   0  0  0  0  0  0  0  0  0  0  0  0
   -0.2618   -0.5181   -2.0021 H   0  0  0  0  0  0  0  0  0  0  0  0
    1.7243    0.0791    1.6632 H   0  0  0  0  0  0  0  0  0  0  0  0
    1.2413   -1.5885    1.2952 H   0  0  0  0  0  0  0  0  0  0  0  0
  1  2  1  0
  2  3  1  0
  3  4  1  0
  4  5  1  0
  5  6  1  0
  6  7  1  0
  5  8  1  0
  8  9  1  0
  7  2  1  0
  9  2  1  0
  1 10  1  0
  3 11  1  0
  3 12  1  0
  4 13  1  0
  4 14  1  0
  5 15  1  0
  6 16  1  0
  6 17  1  0
  7 18  1  0
  7 19  1  0
  9 20  1  0
  9 21  1  0
M  END
