
     RDKit          3D

 16 18  0  0  0  0  0  0  0  0999 V2000
   -0.7592    0.9650    1.8210 O   0  0  0  0  0  0  0  0  0  0  0  0
   -0.2228    0.4353    0.7288 C   0  0  0  0  0  0  0  0  0  0  0  0
   -0.9991    0.3887   -0.5607 C   0  0  0  0  0  0  0  0  0  0  0  0
   -0.0768   -0.7643   -0.8954 C   0  0  0  0  0  0  0  0  0  0  0  0
   -0.1981   -1.0968    0.6012 C   0  0  0  0  0  0  0  0  0  0  0  0
    1.2836   -0.1390   -0.9401 C   0  0  0  0  0  0  0  0  0  0  0  0
    2.1171   -0.2604    0.1622 O   0  0  0  0  0  0  0  0  0  0  0  0
    1.1618    0.7813    0.2898 C   0  0  0  0  0  0  0  0  0  0  0  0
   -1.7239    0.8833    1.8366 H   0  0  0  0  0  0  0  0  0  0  0  0
   -0.8934    1.2304   -1.2402 H   0  0  0  0  0  0  0  0  0  0  0  0
   -2.0563    0.0715   -0.4569 H   0  0  0  0  0  0  0  0  0  0  0  0
   -0.3753   -1.4961   -1.5917 H   0  0  0  0  0  0  0  0  0  0  0  0
    0.6940   -1.5632    1.0156 H   0  0  0  0  0  0  0  0  0  0  0  0
   -1.1709   -1.5162    0.8757 H   0  0  0  0  0  0  0  0  0  0  0  0
    1.7083    0.2695   -1.8552 H   0  0  0  0  0  0  0  0  0  0  0  0
    1.5111    1.8110    0.2094 H   0  0  0  0  0  0  0  0  0  0  0  0
  1  2  1  0
  2  3  1  0
  3  4  1  0
  4  5  1  0
  4  6  1  0
  6  7  1  0
  7  8  1  0
  5  2  1  0
  8  6  1  0
  8  2  1  0
  1  9  1  0
  3 10  1  0
  3 11  1  0
  4 12  1  0
  5 13  1  0
  5 14  1  0
  6 15  1  0
  8 16  1  0
M  END
