
     RDKit          3D

 18 19  0  0  0  0  0  0  0  0999 V2000
    0.4256    1.9468   -0.8226 O   0  0  0  0  0  0  0  0  0  0  0  0
    0.2235    0.8401   -0.0403 C   0  0  0  0  0  0  0  0  0  0  0  0
   -0.9162    0.8805    0.8960 C   0  0  0  0  0  0  0  0  0  0  0  0
   -1.7134   -0.1678    0.7571 C   0  0  0  0  0  0  0  0  0  0  0  0
   -1.1816   -1.0663   -0.3283 C   0  0  0  0  0  0  0  0  0  0  0  0
    0.0275   -0.3926   -0.8942 C   0  0  0  0  0  0  0  0  0  0  0  0
    1.3594   -0.8846   -0.4254 C   0  0  0  0  0  0  0  0  0  0  0  0
    1.4418    0.2208    0.5879 C   0  0  0  0  0  0  0  0  0  0  0  0
   -0.1152    2.7115   -0.4612 H   0  0  0  0  0  0  0  0  0  0  0  0
   -1.0926    1.6641    1.6140 H   0  0  0  0  0  0  0  0  0  0  0  0
   -2.6222   -0.4293    1.2870 H   0  0  0  0  0  0  0  0  0  0  0  0
   -1.0165   -2.0727    0.0526 H   0  0  0  0  0  0  0  0  0  0  0  0
   -1.9698   -1.1132   -1.1040 H   0  0  0  0  0  0  0  0  0  0  0  0
   -0.0019   -0.2187   -1.9831 H   0  0  0  0  0  0  0  0  0  0  0  0
    2.1663   -0.7345   -1.1946 H   0  0  0  0  0  0  0  0  0  0  0  0
    1.4131   -1.9114   -0.0402 H   0  0  0  0  0  0  0  0  0  0  0  0
    2.3155    0.8982    0.4958 H   0  0  0  0  0  0  0  0  0  0  0  0
    1.2569   -0.1708    1.6036 H   0  0  0  0  0  0  0  0  0  0  0  0
  1  2  1  0
  2  3  1  0
  3  4  2  0
  4  5  1  0
  5  6  1  0
  6  7  1  0
  7  8  1  0
  6  2  1  0
  8  2  1  0
  1  9  1  0
  3 10  1  0
  4 11  1  0
  5 12  1  0
  5 13  1  0
  6 14  1  0
  7 15  1  0
  7 16  1  0
  8 17  1  0
  8 18  1  0
M  END
