
     RDKit          3D

 18 19  0  0  0  0  0  0  0  0999 V2000
   -1.4313    1.7366   -1.0295 O   0  0  0  0  0  0  0  0  0  0  0  0
   -0.7346    0.7712   -0.2649 C   0  0  0  0  0  0  0  0  0  0  0  0
    0.1664    1.2653    0.7952 C   0  0  0  0  0  0  0  0  0  0  0  0
    1.3497    0.6479    0.9641 O   0  0  0  0  0  0  0  0  0  0  0  0
    1.4422   -0.6806    0.7390 C   0  0  0  0  0  0  0  0  0  0  0  0
    0.8292   -1.1724   -0.5363 C   0  0  0  0  0  0  0  0  0  0  0  0
   -0.3892   -0.4453   -0.9606 C   0  0  0  0  0  0  0  0  0  0  0  0
   -1.5508   -0.4939    0.0276 C   0  0  0  0  0  0  0  0  0  0  0  0
   -0.7674    2.4836   -1.1346 H   0  0  0  0  0  0  0  0  0  0  0  0
   -0.4288    1.3091    1.7552 H   0  0  0  0  0  0  0  0  0  0  0  0
    0.3855    2.3545    0.5789 H   0  0  0  0  0  0  0  0  0  0  0  0
    2.5476   -0.9115    0.6492 H   0  0  0  0  0  0  0  0  0  0  0  0
    1.1125   -1.3273    1.6018 H   0  0  0  0  0  0  0  0  0  0  0  0
    1.5528   -1.1625   -1.3943 H   0  0  0  0  0  0  0  0  0  0  0  0
    0.5464   -2.2527   -0.3846 H   0  0  0  0  0  0  0  0  0  0  0  0
   -0.6825   -0.6029   -2.0234 H   0  0  0  0  0  0  0  0  0  0  0  0
   -2.5692   -0.5671   -0.4025 H   0  0  0  0  0  0  0  0  0  0  0  0
   -1.3785   -0.9519    1.0197 H   0  0  0  0  0  0  0  0  0  0  0  0
  1  2  1  0
  2  3  1  0
  3  4  1  0
  4  5  1  0
  5  6  1  0
  6  7  1  0
  7  8  1  0
  7  2  1  0
  8  2  1  0
  1  9  1  0
  3 10  1  0
  3 11  1  0
  5 12  1  0
  5 13  1  0
  6 14  1  0
  6 15  1  0
  7 16  1  0
  8 17  1  0
  8 18  1  0
M  END
