
     RDKit          3D

 21 23  0  0  0  0  0  0  0  0999 V2000
   -1.4615   -1.8515   -0.5030 O   0  0  0  0  0  0  0  0  0  0  0  0
   -0.6281   -0.8168   -0.3078 C   0  0  0  0  0  0  0  0  0  0  0  0
    0.0023   -0.1558   -1.5071 C   0  0  0  0  0  0  0  0  0  0  0  0
    0.7976    0.9169   -0.7452 C   0  0  0  0  0  0  0  0  0  0  0  0
    1.5681    0.0638    0.2179 C   0  0  0  0  0  0  0  0  0  0  0  0
    0.5125   -0.9555    0.6478 C   0  0  0  0  0  0  0  0  0  0  0  0
   -0.3799   -0.2957    1.6941 C   0  0  0  0  0  0  0  0  0  0  0  0
   -1.1046    0.3561    0.5079 C   0  0  0  0  0  0  0  0  0  0  0  0
   -0.3423    1.5772   -0.0000 C   0  0  0  0  0  0  0  0  0  0  0  0
   -1.2201   -2.3231   -1.3474 H   0  0  0  0  0  0  0  0  0  0  0  0
   -0.7789    0.3876   -2.0535 H   0  0  0  0  0  0  0  0  0  0  0  0
    0.6391   -0.8027   -2.1003 H   0  0  0  0  0  0  0  0  0  0  0  0
    1.3700    1.5620   -1.3811 H   0  0  0  0  0  0  0  0  0  0  0  0
    2.4123   -0.4555   -0.2607 H   0  0  0  0  0  0  0  0  0  0  0  0
    1.8759    0.6318    1.0947 H   0  0  0  0  0  0  0  0  0  0  0  0
    0.8774   -1.9482    0.8847 H   0  0  0  0  0  0  0  0  0  0  0  0
    0.1122    0.3969    2.3709 H   0  0  0  0  0  0  0  0  0  0  0  0
   -1.0561   -1.0546    2.1253 H   0  0  0  0  0  0  0  0  0  0  0  0
   -2.1776    0.4806    0.6304 H   0  0  0  0  0  0  0  0  0  0  0  0
   -0.9948    2.0456   -0.7643 H   0  0  0  0  0  0  0  0  0  0  0  0
   -0.0235    2.2411    0.7968 H   0  0  0  0  0  0  0  0  0  0  0  0
  1  2  1  0
  2  3  1  0
  3  4  1  0
  4  5  1  0
  5  6  1  0
  6  7  1  0
  7  8  1  0
  8  9  1  0
  6  2  1  0
  8  2  1  0
  9  4  1  0
  1 10  1  0
  3 11  1  0
  3 12  1  0
  4 13  1  0
  5 14  1  0
  5 15  1  0
  6 16  1  0
  7 17  1  0
  7 18  1  0
  8 19  1  0
  9 20  1  0
  9 21  1  0
M  END
