
     RDKit          3D

 17 19  0  0  0  0  0  0  0  0999 V2000
   -1.0138    1.8815    0.5940 O   0  0  0  0  0  0  0  0  0  0  0  0
   -0.6763    0.7903   -0.1511 C   0  0  0  0  0  0  0  0  0  0  0  0
   -1.8536    0.0240    0.1690 C   0  0  0  0  0  0  0  0  0  0  0  0
   -0.8317   -0.6081   -0.4098 C   0  0  0  0  0  0  0  0  0  0  0  0
    0.0814   -1.5106    0.3939 C   0  0  0  0  0  0  0  0  0  0  0  0
    1.3533   -1.1313    0.4361 C   0  0  0  0  0  0  0  0  0  0  0  0
    1.7488    0.1011   -0.2851 C   0  0  0  0  0  0  0  0  0  0  0  0
    1.3122    0.1270   -1.6199 O   0  0  0  0  0  0  0  0  0  0  0  0
    0.6416    0.9699   -0.6535 C   0  0  0  0  0  0  0  0  0  0  0  0
   -0.4948    1.9233    1.4292 H   0  0  0  0  0  0  0  0  0  0  0  0
   -2.1726   -0.2919    1.2147 H   0  0  0  0  0  0  0  0  0  0  0  0
   -2.8075    0.2492   -0.4042 H   0  0  0  0  0  0  0  0  0  0  0  0
   -0.8147   -0.9169   -1.4916 H   0  0  0  0  0  0  0  0  0  0  0  0
   -0.2774   -2.3932    0.8925 H   0  0  0  0  0  0  0  0  0  0  0  0
    2.1041   -1.7217    0.9978 H   0  0  0  0  0  0  0  0  0  0  0  0
    2.7840    0.5009   -0.0861 H   0  0  0  0  0  0  0  0  0  0  0  0
    0.9170    2.0064   -1.0258 H   0  0  0  0  0  0  0  0  0  0  0  0
  1  2  1  0
  2  3  1  0
  3  4  1  0
  4  5  1  0
  5  6  2  0
  6  7  1  0
  7  8  1  0
  8  9  1  0
  4  2  1  0
  9  7  1  0
  9  2  1  0
  1 10  1  0
  3 11  1  0
  3 12  1  0
  4 13  1  0
  5 14  1  0
  6 15  1  0
  7 16  1  0
  9 17  1  0
M  END
