
     RDKit          3D

 16 18  0  0  0  0  0  0  0  0999 V2000
   -0.4642   -1.1628   -1.6418 O   0  0  0  0  0  0  0  0  0  0  0  0
   -0.4728   -0.4936   -0.5800 C   0  0  0  0  0  0  0  0  0  0  0  0
   -1.6099   -0.2484    0.3626 C   0  0  0  0  0  0  0  0  0  0  0  0
   -0.4663    0.5291    0.9631 C   0  0  0  0  0  0  0  0  0  0  0  0
    0.3860   -0.6656    0.6369 C   0  0  0  0  0  0  0  0  0  0  0  0
    1.6733   -0.0638    0.2700 C   0  0  0  0  0  0  0  0  0  0  0  0
    1.3307    1.0208   -0.4307 C   0  0  0  0  0  0  0  0  0  0  0  0
   -0.1465    0.9722   -0.4202 C   0  0  0  0  0  0  0  0  0  0  0  0
    0.3846   -1.6300   -1.8327 H   0  0  0  0  0  0  0  0  0  0  0  0
   -1.8563   -1.1396    0.9503 H   0  0  0  0  0  0  0  0  0  0  0  0
   -2.4472    0.3494   -0.0197 H   0  0  0  0  0  0  0  0  0  0  0  0
   -0.4750    1.0561    1.8121 H   0  0  0  0  0  0  0  0  0  0  0  0
    0.3269   -1.5431    1.2238 H   0  0  0  0  0  0  0  0  0  0  0  0
    2.6409   -0.4657    0.5423 H   0  0  0  0  0  0  0  0  0  0  0  0
    1.9172    1.7833   -0.9118 H   0  0  0  0  0  0  0  0  0  0  0  0
   -0.7214    1.7014   -0.9241 H   0  0  0  0  0  0  0  0  0  0  0  0
  1  2  1  0
  2  3  1  0
  3  4  1  0
  4  5  1  0
  5  6  1  0
  6  7  2  0
  7  8  1  0
  5  2  1  0
  8  2  1  0
  8  4  1  0
  1  9  1  0
  3 10  1  0
  3 11  1  0
  4 12  1  0
  5 13  1  0
  6 14  1  0
  7 15  1  0
  8 16  1  0
M  END
