
     RDKit          3D

 16 18  0  0  0  0  0  0  0  0999 V2000
    1.9954   -0.3313   -0.5833 O   0  0  0  0  0  0  0  0  0  0  0  0
    0.7813   -0.1125   -0.0180 C   0  0  0  0  0  0  0  0  0  0  0  0
    0.4407   -1.0276    1.1360 C   0  0  0  0  0  0  0  0  0  0  0  0
   -0.9421   -1.0112    1.2738 O   0  0  0  0  0  0  0  0  0  0  0  0
   -1.4958   -0.5327    0.1092 C   0  0  0  0  0  0  0  0  0  0  0  0
   -1.0486    0.8823   -0.2395 C   0  0  0  0  0  0  0  0  0  0  0  0
    0.3358    1.3229    0.1563 C   0  0  0  0  0  0  0  0  0  0  0  0
   -0.4435   -0.2961   -0.8711 C   0  0  0  0  0  0  0  0  0  0  0  0
    2.1091    0.0874   -1.4498 H   0  0  0  0  0  0  0  0  0  0  0  0
    0.6947   -2.0677    0.7755 H   0  0  0  0  0  0  0  0  0  0  0  0
    0.9835   -0.7929    2.0554 H   0  0  0  0  0  0  0  0  0  0  0  0
   -2.4766   -0.8287   -0.2384 H   0  0  0  0  0  0  0  0  0  0  0  0
   -1.7535    1.5524   -0.7208 H   0  0  0  0  0  0  0  0  0  0  0  0
    0.4593    1.7472    1.1477 H   0  0  0  0  0  0  0  0  0  0  0  0
    0.7866    1.9497   -0.6281 H   0  0  0  0  0  0  0  0  0  0  0  0
   -0.4262   -0.5412   -1.9049 H   0  0  0  0  0  0  0  0  0  0  0  0
  1  2  1  0
  2  3  1  0
  3  4  1  0
  4  5  1  0
  5  6  1  0
  6  7  1  0
  6  8  1  0
  7  2  1  0
  8  2  1  0
  8  5  1  0
  1  9  1  0
  3 10  1  0
  3 11  1  0
  5 12  1  0
  6 13  1  0
  7 14  1  0
  7 15  1  0
  8 16  1  0
M  END
