
     RDKit          2D

 19 22  0  0  0  0  0  0  0  0999 V2000
   -1.8819    1.1382    0.0000 O   0  0  0  0  0  0  0  0  0  0  0  0
   -0.4330    0.7500    0.0000 C   0  0  0  0  0  0  0  0  0  0  0  0
    0.8660    0.0000    0.0000 C   0  0  0  0  0  0  0  0  0  0  0  0
    1.6160    1.2990    0.0000 C   0  0  0  0  0  0  0  0  0  0  0  0
    0.3170    2.0490    0.0000 C   0  0  0  0  0  0  0  0  0  0  0  0
   -0.9821    1.2990    0.0000 C   0  0  0  0  0  0  0  0  0  0  0  0
   -2.4761    1.4325    0.0000 C   0  0  0  0  0  0  0  0  0  0  0  0
   -1.6135    2.6596    0.0000 C   0  0  0  0  0  0  0  0  0  0  0  0
   -0.4330   -0.7500    0.0000 C   0  0  0  0  0  0  0  0  0  0  0  0
   -2.8054   -0.0438    0.0000 H   0  0  0  0  0  0  0  0  0  0  0  0
    1.9267   -1.0607    0.0000 H   0  0  0  0  0  0  0  0  0  0  0  0
    2.3660    2.5981    0.0000 H   0  0  0  0  0  0  0  0  0  0  0  0
    2.9151    0.5490    0.0000 H   0  0  0  0  0  0  0  0  0  0  0  0
    0.1083    3.5344    0.0000 H   0  0  0  0  0  0  0  0  0  0  0  0
   -3.0406    0.0427    0.0000 H   0  0  0  0  0  0  0  0  0  0  0  0
   -3.8344    2.0689    0.0000 H   0  0  0  0  0  0  0  0  0  0  0  0
   -2.6722    3.7222    0.0000 H   0  0  0  0  0  0  0  0  0  0  0  0
   -0.4970    3.6613    0.0000 H   0  0  0  0  0  0  0  0  0  0  0  0
   -1.1830   -2.0490    0.0000 H   0  0  0  0  0  0  0  0  0  0  0  0
  1  2  1  0
  2  3  1  0
  3  4  1  0
  4  5  1  0
  5  6  1  0
  6  7  1  0
  7  8  1  0
  6  9  1  0
  5  2  1  0
  8  6  1  0
  9  2  1  0
  9  3  1  0
  1 10  1  0
  3 11  1  0
  4 12  1  0
  4 13  1  0
  5 14  1  0
  7 15  1  0
  7 16  1  0
  8 17  1  0
  8 18  1  0
  9 19  1  0
M  END
