
     RDKit          3D

 16 18  0  0  0  0  0  0  0  0999 V2000
   -2.3379   -0.5485   -0.5101 O   0  0  0  0  0  0  0  0  0  0  0  0
   -1.0147   -0.2270   -0.4682 C   0  0  0  0  0  0  0  0  0  0  0  0
   -0.5630    1.2043   -0.2369 C   0  0  0  0  0  0  0  0  0  0  0  0
    0.5287    0.6412    0.6587 C   0  0  0  0  0  0  0  0  0  0  0  0
    1.7603    0.1823   -0.1213 C   0  0  0  0  0  0  0  0  0  0  0  0
    1.2817   -0.6336   -1.1145 O   0  0  0  0  0  0  0  0  0  0  0  0
    0.0794   -1.2051   -0.6620 C   0  0  0  0  0  0  0  0  0  0  0  0
   -0.2266   -0.6579    0.6635 C   0  0  0  0  0  0  0  0  0  0  0  0
   -2.7881   -0.3923    0.3733 H   0  0  0  0  0  0  0  0  0  0  0  0
   -1.3178    1.7537    0.3157 H   0  0  0  0  0  0  0  0  0  0  0  0
   -0.2141    1.6369   -1.1885 H   0  0  0  0  0  0  0  0  0  0  0  0
    0.7067    1.1389    1.5956 H   0  0  0  0  0  0  0  0  0  0  0  0
    2.3638    1.0108   -0.4711 H   0  0  0  0  0  0  0  0  0  0  0  0
    2.3363   -0.4780    0.5900 H   0  0  0  0  0  0  0  0  0  0  0  0
   -0.0784   -2.2412   -0.9620 H   0  0  0  0  0  0  0  0  0  0  0  0
   -0.5163   -1.1845    1.5378 H   0  0  0  0  0  0  0  0  0  0  0  0
  1  2  1  0
  2  3  1  0
  3  4  1  0
  4  5  1  0
  5  6  1  0
  6  7  1  0
  7  8  1  0
  7  2  1  0
  8  2  1  0
  8  4  1  0
  1  9  1  0
  3 10  1  0
  3 11  1  0
  4 12  1  0
  5 13  1  0
  5 14  1  0
  7 15  1  0
  8 16  1  0
M  END
