
     RDKit          3D

 17 19  0  0  0  0  0  0  0  0999 V2000
   -0.5691    1.7261    1.2921 O   0  0  0  0  0  0  0  0  0  0  0  0
   -0.2794    0.7031    0.4711 C   0  0  0  0  0  0  0  0  0  0  0  0
   -0.0100   -0.6968    0.9371 C   0  0  0  0  0  0  0  0  0  0  0  0
   -1.0424   -1.4795    0.1107 C   0  0  0  0  0  0  0  0  0  0  0  0
   -1.2040   -0.7887   -1.0655 O   0  0  0  0  0  0  0  0  0  0  0  0
   -0.7786    0.5056   -0.8909 C   0  0  0  0  0  0  0  0  0  0  0  0
    0.6443    0.8463   -0.7029 C   0  0  0  0  0  0  0  0  0  0  0  0
    1.7000   -0.1553   -0.4034 C   0  0  0  0  0  0  0  0  0  0  0  0
    1.2217   -1.0779    0.4848 O   0  0  0  0  0  0  0  0  0  0  0  0
   -0.9938    2.4607    0.7771 H   0  0  0  0  0  0  0  0  0  0  0  0
   -0.1995   -0.8724    1.9961 H   0  0  0  0  0  0  0  0  0  0  0  0
   -2.0046   -1.5726    0.6848 H   0  0  0  0  0  0  0  0  0  0  0  0
   -0.7044   -2.5053   -0.0952 H   0  0  0  0  0  0  0  0  0  0  0  0
   -1.4124    1.2863   -1.3310 H   0  0  0  0  0  0  0  0  0  0  0  0
    0.9972    1.8398   -1.0182 H   0  0  0  0  0  0  0  0  0  0  0  0
    2.5431    0.3925    0.1110 H   0  0  0  0  0  0  0  0  0  0  0  0
    2.0919   -0.6120   -1.3577 H   0  0  0  0  0  0  0  0  0  0  0  0
  1  2  1  0
  2  3  1  0
  3  4  1  0
  4  5  1  0
  5  6  1  0
  6  7  1  0
  7  8  1  0
  8  9  1  0
  6  2  1  0
  7  2  1  0
  9  3  1  0
  1 10  1  0
  3 11  1  0
  4 12  1  0
  4 13  1  0
  6 14  1  0
  7 15  1  0
  8 16  1  0
  8 17  1  0
M  END
