
     RDKit          3D

 17 20  0  0  0  0  0  0  0  0999 V2000
   -2.3854    0.2164    0.6704 O   0  0  0  0  0  0  0  0  0  0  0  0
   -1.1414   -0.0533    0.3026 C   0  0  0  0  0  0  0  0  0  0  0  0
   -0.3052    0.8312   -0.6139 C   0  0  0  0  0  0  0  0  0  0  0  0
    0.7393    1.5294    0.1993 C   0  0  0  0  0  0  0  0  0  0  0  0
    1.5687    0.6392    0.7251 C   0  0  0  0  0  0  0  0  0  0  0  0
    1.1660   -0.7330    0.3210 C   0  0  0  0  0  0  0  0  0  0  0  0
    0.4378   -0.4328   -0.9765 C   0  0  0  0  0  0  0  0  0  0  0  0
   -0.6979   -1.2038   -0.5050 C   0  0  0  0  0  0  0  0  0  0  0  0
   -0.2428   -1.0988    0.8481 C   0  0  0  0  0  0  0  0  0  0  0  0
   -2.6733    1.1020    0.3810 H   0  0  0  0  0  0  0  0  0  0  0  0
   -0.8036    1.3772   -1.3769 H   0  0  0  0  0  0  0  0  0  0  0  0
    0.8062    2.6068    0.3373 H   0  0  0  0  0  0  0  0  0  0  0  0
    2.4065    0.8784    1.3500 H   0  0  0  0  0  0  0  0  0  0  0  0
    1.8899   -1.5155    0.3287 H   0  0  0  0  0  0  0  0  0  0  0  0
    0.9239   -0.5339   -1.8983 H   0  0  0  0  0  0  0  0  0  0  0  0
   -1.3044   -1.9097   -1.0028 H   0  0  0  0  0  0  0  0  0  0  0  0
   -0.3845   -1.6998    1.7025 H   0  0  0  0  0  0  0  0  0  0  0  0
  1  2  1  0
  2  3  1  0
  3  4  1  0
  4  5  2  0
  5  6  1  0
  6  7  1  0
  7  8  1  0
  8  9  1  0
  8  2  1  0
  9  2  1  0
  7  3  1  0
  9  6  1  0
  1 10  1  0
  3 11  1  0
  4 12  1  0
  5 13  1  0
  6 14  1  0
  7 15  1  0
  8 16  1  0
  9 17  1  0
M  END
