
     RDKit          3D

 13 16  0  0  0  0  0  0  0  0999 V2000
    1.6413   -0.2763    1.1127 O   0  0  0  0  0  0  0  0  0  0  0  0
    0.9096   -0.0437   -0.0143 C   0  0  0  0  0  0  0  0  0  0  0  0
   -0.2804   -1.0804   -0.2953 C   0  0  0  0  0  0  0  0  0  0  0  0
   -0.5749   -0.3443    0.5757 C   0  0  0  0  0  0  0  0  0  0  0  0
   -1.3749    0.1403   -0.1566 C   0  0  0  0  0  0  0  0  0  0  0  0
   -0.1854    1.1757    0.1348 C   0  0  0  0  0  0  0  0  0  0  0  0
    0.1203    0.4400   -0.7355 C   0  0  0  0  0  0  0  0  0  0  0  0
    2.5692   -0.5262    0.7968 H   0  0  0  0  0  0  0  0  0  0  0  0
   -0.2602   -1.5086   -1.3045 H   0  0  0  0  0  0  0  0  0  0  0  0
   -0.2149   -0.1160    1.5704 H   0  0  0  0  0  0  0  0  0  0  0  0
   -1.9033    0.3259   -1.1037 H   0  0  0  0  0  0  0  0  0  0  0  0
   -0.1923    1.5935    1.1506 H   0  0  0  0  0  0  0  0  0  0  0  0
   -0.2539    0.2201   -1.7314 H   0  0  0  0  0  0  0  0  0  0  0  0
  1  2  1  0
  2  3  1  0
  3  4  1  0
  4  5  1  0
  5  6  1  0
  6  7  1  0
  6  2  1  0
  7  2  1  0
  5  3  1  0
  7  4  1  0
  1  8  1  0
  3  9  1  0
  4 10  1  0
  5 11  1  0
  6 12  1  0
  7 13  1  0
M  END
