
     RDKit          3D

 21 22  0  0  0  0  0  0  0  0999 V2000
   -1.0124   -1.1126    1.3094 O   0  0  0  0  0  0  0  0  0  0  0  0
   -1.2012   -0.5140    0.0391 C   0  0  0  0  0  0  0  0  0  0  0  0
   -0.2372   -1.0090   -0.9551 C   0  0  0  0  0  0  0  0  0  0  0  0
    1.0928   -1.1612   -0.2533 C   0  0  0  0  0  0  0  0  0  0  0  0
    1.8131    0.0543    0.1106 C   0  0  0  0  0  0  0  0  0  0  0  0
    1.1430    1.2906    0.4685 C   0  0  0  0  0  0  0  0  0  0  0  0
   -0.1405    1.2685    0.9613 O   0  0  0  0  0  0  0  0  0  0  0  0
   -1.0156    1.0318   -0.0346 C   0  0  0  0  0  0  0  0  0  0  0  0
   -2.2894    0.3939   -0.0668 C   0  0  0  0  0  0  0  0  0  0  0  0
   -1.6009   -0.6961    1.9890 H   0  0  0  0  0  0  0  0  0  0  0  0
   -0.5379   -1.9668   -1.4017 H   0  0  0  0  0  0  0  0  0  0  0  0
   -0.0675   -0.3111   -1.8167 H   0  0  0  0  0  0  0  0  0  0  0  0
    1.7584   -1.8322   -0.8358 H   0  0  0  0  0  0  0  0  0  0  0  0
    0.8721   -1.7443    0.6910 H   0  0  0  0  0  0  0  0  0  0  0  0
    2.5509    0.2744   -0.7231 H   0  0  0  0  0  0  0  0  0  0  0  0
    2.5135   -0.2229    0.9601 H   0  0  0  0  0  0  0  0  0  0  0  0
    1.7728    1.8877    1.1949 H   0  0  0  0  0  0  0  0  0  0  0  0
    1.1051    1.9712   -0.4373 H   0  0  0  0  0  0  0  0  0  0  0  0
   -0.6652    1.4600   -1.0211 H   0  0  0  0  0  0  0  0  0  0  0  0
   -2.9647    0.5287    0.8185 H   0  0  0  0  0  0  0  0  0  0  0  0
   -2.8890    0.4093   -0.9969 H   0  0  0  0  0  0  0  0  0  0  0  0
  1  2  1  0
  2  3  1  0
  3  4  1  0
  4  5  1  0
  5  6  1  0
  6  7  1  0
  7  8  1  0
  8  9  1  0
  8  2  1  0
  9  2  1  0
  1 10  1  0
  3 11  1  0
  3 12  1  0
  4 13  1  0
  4 14  1  0
  5 15  1  0
  5 16  1  0
  6 17  1  0
  6 18  1  0
  8 19  1  0
  9 20  1  0
  9 21  1  0
M  END
