
     RDKit          3D

 21 23  0  0  0  0  0  0  0  0999 V2000
    2.5106   -0.6171    0.3032 O   0  0  0  0  0  0  0  0  0  0  0  0
    1.2123   -0.2262    0.1593 C   0  0  0  0  0  0  0  0  0  0  0  0
    0.3736   -1.1128   -0.7040 C   0  0  0  0  0  0  0  0  0  0  0  0
   -1.0140   -0.6236   -0.8960 C   0  0  0  0  0  0  0  0  0  0  0  0
   -2.0233   -0.6383    0.1754 C   0  0  0  0  0  0  0  0  0  0  0  0
   -1.3785    0.6182   -0.2046 C   0  0  0  0  0  0  0  0  0  0  0  0
   -0.2309    1.2184    0.5580 C   0  0  0  0  0  0  0  0  0  0  0  0
    0.4950    0.2305    1.4126 C   0  0  0  0  0  0  0  0  0  0  0  0
    1.0090    1.2086   -0.3498 C   0  0  0  0  0  0  0  0  0  0  0  0
    2.7769   -1.1508   -0.4837 H   0  0  0  0  0  0  0  0  0  0  0  0
    0.8879   -1.1792   -1.7000 H   0  0  0  0  0  0  0  0  0  0  0  0
    0.4325   -2.1482   -0.2851 H   0  0  0  0  0  0  0  0  0  0  0  0
   -1.4277   -0.7316   -1.9401 H   0  0  0  0  0  0  0  0  0  0  0  0
   -3.1128   -0.7237   -0.1117 H   0  0  0  0  0  0  0  0  0  0  0  0
   -1.8465   -1.1446    1.1565 H   0  0  0  0  0  0  0  0  0  0  0  0
   -1.9739    1.3910   -0.7606 H   0  0  0  0  0  0  0  0  0  0  0  0
   -0.4179    2.2145    0.9838 H   0  0  0  0  0  0  0  0  0  0  0  0
    1.2227    0.7592    2.0693 H   0  0  0  0  0  0  0  0  0  0  0  0
   -0.0782   -0.5124    1.9518 H   0  0  0  0  0  0  0  0  0  0  0  0
    0.8006    1.2945   -1.4142 H   0  0  0  0  0  0  0  0  0  0  0  0
    1.7828    1.8737    0.0799 H   0  0  0  0  0  0  0  0  0  0  0  0
  1  2  1  0
  2  3  1  0
  3  4  1  0
  4  5  1  0
  5  6  1  0
  6  7  1  0
  7  8  1  0
  7  9  1  0
  8  2  1  0
  9  2  1  0
  6  4  1  0
  1 10  1  0
  3 11  1  0
  3 12  1  0
  4 13  1  0
  5 14  1  0
  5 15  1  0
  6 16  1  0
  7 17  1  0
  8 18  1  0
  8 19  1  0
  9 20  1  0
  9 21  1  0
M  END
