
     RDKit          3D

 19 21  0  0  0  0  0  0  0  0999 V2000
   -1.3767    1.2168   -1.3403 O   0  0  0  0  0  0  0  0  0  0  0  0
   -1.0979    0.5265   -0.2064 C   0  0  0  0  0  0  0  0  0  0  0  0
   -2.2054    0.3261    0.7585 C   0  0  0  0  0  0  0  0  0  0  0  0
   -1.4834   -0.8299    0.1045 C   0  0  0  0  0  0  0  0  0  0  0  0
   -0.1370   -1.1124    0.7054 C   0  0  0  0  0  0  0  0  0  0  0  0
    0.3072    0.2646    0.2543 C   0  0  0  0  0  0  0  0  0  0  0  0
    1.3479    0.1716   -0.8304 C   0  0  0  0  0  0  0  0  0  0  0  0
    2.7471   -0.0949   -0.3141 C   0  0  0  0  0  0  0  0  0  0  0  0
    2.3761    1.1096   -0.8712 O   0  0  0  0  0  0  0  0  0  0  0  0
   -1.4112    2.2115   -1.1700 H   0  0  0  0  0  0  0  0  0  0  0  0
   -3.2332    0.5315    0.4589 H   0  0  0  0  0  0  0  0  0  0  0  0
   -1.9496    0.5371    1.8272 H   0  0  0  0  0  0  0  0  0  0  0  0
   -1.9973   -1.5346   -0.5337 H   0  0  0  0  0  0  0  0  0  0  0  0
    0.4296   -1.9462    0.2583 H   0  0  0  0  0  0  0  0  0  0  0  0
   -0.2171   -1.1944    1.7997 H   0  0  0  0  0  0  0  0  0  0  0  0
    0.5643    0.9695    1.0715 H   0  0  0  0  0  0  0  0  0  0  0  0
    1.0719   -0.2170   -1.8263 H   0  0  0  0  0  0  0  0  0  0  0  0
    3.3220   -0.8372   -0.8994 H   0  0  0  0  0  0  0  0  0  0  0  0
    2.9427   -0.0983    0.7535 H   0  0  0  0  0  0  0  0  0  0  0  0
  1  2  1  0
  2  3  1  0
  3  4  1  0
  4  5  1  0
  5  6  1  0
  6  7  1  0
  7  8  1  0
  8  9  1  0
  4  2  1  0
  9  7  1  0
  6  2  1  0
  1 10  1  0
  3 11  1  0
  3 12  1  0
  4 13  1  0
  5 14  1  0
  5 15  1  0
  6 16  1  0
  7 17  1  0
  8 18  1  0
  8 19  1  0
M  END
