
     RDKit          3D

 17 18  0  0  0  0  0  0  0  0999 V2000
    2.2760    0.3003    0.1875 O   0  0  0  0  0  0  0  0  0  0  0  0
    0.9442    0.0860    0.1182 C   0  0  0  0  0  0  0  0  0  0  0  0
    0.1761    1.2437   -0.4825 C   0  0  0  0  0  0  0  0  0  0  0  0
   -1.1503    1.0646   -0.3911 C   0  0  0  0  0  0  0  0  0  0  0  0
   -1.5203   -0.3277    0.0683 C   0  0  0  0  0  0  0  0  0  0  0  0
   -0.7574   -1.2528   -0.8215 C   0  0  0  0  0  0  0  0  0  0  0  0
    0.5665   -1.0820   -0.7698 C   0  0  0  0  0  0  0  0  0  0  0  0
   -0.9837   -0.5305    1.3600 O   0  0  0  0  0  0  0  0  0  0  0  0
    0.3138   -0.1016    1.4854 C   0  0  0  0  0  0  0  0  0  0  0  0
    2.6685    0.6975   -0.6013 H   0  0  0  0  0  0  0  0  0  0  0  0
    0.6438    2.0912   -0.9211 H   0  0  0  0  0  0  0  0  0  0  0  0
   -1.8758    1.8169   -0.6159 H   0  0  0  0  0  0  0  0  0  0  0  0
   -2.5888   -0.4975    0.0751 H   0  0  0  0  0  0  0  0  0  0  0  0
   -1.2696   -1.9789   -1.4344 H   0  0  0  0  0  0  0  0  0  0  0  0
    1.2816   -1.6786   -1.2794 H   0  0  0  0  0  0  0  0  0  0  0  0
    0.9655   -0.7790    2.0708 H   0  0  0  0  0  0  0  0  0  0  0  0
    0.3098    0.9283    1.9515 H   0  0  0  0  0  0  0  0  0  0  0  0
  1  2  1  0
  2  3  1  0
  3  4  2  0
  4  5  1  0
  5  6  1  0
  6  7  2  0
  5  8  1  0
  8  9  1  0
  7  2  1  0
  9  2  1  0
  1 10  1  0
  3 11  1  0
  4 12  1  0
  5 13  1  0
  6 14  1  0
  7 15  1  0
  9 16  1  0
  9 17  1  0
M  END
