
     RDKit          3D

 19 21  0  0  0  0  0  0  0  0999 V2000
   -1.1005    1.6348   -0.9783 O   0  0  0  0  0  0  0  0  0  0  0  0
   -0.6009    0.6028   -0.3175 C   0  0  0  0  0  0  0  0  0  0  0  0
   -0.6797   -0.7896   -0.9698 C   0  0  0  0  0  0  0  0  0  0  0  0
   -0.5842   -1.2599    0.4878 C   0  0  0  0  0  0  0  0  0  0  0  0
   -1.4464   -0.0484    0.7840 C   0  0  0  0  0  0  0  0  0  0  0  0
    0.7872   -0.7920    0.9100 C   0  0  0  0  0  0  0  0  0  0  0  0
    0.7573    0.5659    0.2399 C   0  0  0  0  0  0  0  0  0  0  0  0
    1.9492    0.8419   -0.6471 C   0  0  0  0  0  0  0  0  0  0  0  0
    1.5775    1.5677    0.5092 O   0  0  0  0  0  0  0  0  0  0  0  0
   -1.4747    2.3281   -0.4049 H   0  0  0  0  0  0  0  0  0  0  0  0
    0.2324   -0.9479   -1.5571 H   0  0  0  0  0  0  0  0  0  0  0  0
   -1.6414   -1.0170   -1.4292 H   0  0  0  0  0  0  0  0  0  0  0  0
   -0.9260   -2.2231    0.7287 H   0  0  0  0  0  0  0  0  0  0  0  0
   -1.2988    0.3798    1.7809 H   0  0  0  0  0  0  0  0  0  0  0  0
   -2.4891   -0.2529    0.4772 H   0  0  0  0  0  0  0  0  0  0  0  0
    0.8089   -0.5881    2.0116 H   0  0  0  0  0  0  0  0  0  0  0  0
    1.6025   -1.4325    0.5728 H   0  0  0  0  0  0  0  0  0  0  0  0
    2.8345    0.1741   -0.5694 H   0  0  0  0  0  0  0  0  0  0  0  0
    1.6921    1.2563   -1.6290 H   0  0  0  0  0  0  0  0  0  0  0  0
  1  2  1  0
  2  3  1  0
  3  4  1  0
  4  5  1  0
  4  6  1  0
  6  7  1  0
  7  8  1  0
  8  9  1  0
  5  2  1  0
  9  7  1  0
  7  2  1  0
  1 10  1  0
  3 11  1  0
  3 12  1  0
  4 13  1  0
  5 14  1  0
  5 15  1  0
  6 16  1  0
  6 17  1  0
  8 18  1  0
  8 19  1  0
M  END
