
     RDKit          3D

 14 15  0  0  0  0  0  0  0  0999 V2000
   -1.5680   -1.2926   -0.0648 O   0  0  0  0  0  0  0  0  0  0  0  0
   -0.5711   -0.4064   -0.4501 C   0  0  0  0  0  0  0  0  0  0  0  0
    0.8161   -0.9333   -0.3965 C   0  0  0  0  0  0  0  0  0  0  0  0
    1.3420    0.2788    0.3421 C   0  0  0  0  0  0  0  0  0  0  0  0
   -0.1208    0.6312    0.6340 C   0  0  0  0  0  0  0  0  0  0  0  0
   -0.9047    1.0207   -0.5478 C   0  0  0  0  0  0  0  0  0  0  0  0
   -2.0130   -0.8902    0.7342 H   0  0  0  0  0  0  0  0  0  0  0  0
    0.9075   -1.8243    0.2896 H   0  0  0  0  0  0  0  0  0  0  0  0
    1.3184   -1.1788   -1.3393 H   0  0  0  0  0  0  0  0  0  0  0  0
    1.9497    0.0911    1.2224 H   0  0  0  0  0  0  0  0  0  0  0  0
    1.7253    1.0740   -0.3593 H   0  0  0  0  0  0  0  0  0  0  0  0
   -0.5297    0.4325    1.6176 H   0  0  0  0  0  0  0  0  0  0  0  0
   -1.9622    1.2899   -0.4099 H   0  0  0  0  0  0  0  0  0  0  0  0
   -0.3895    1.7072   -1.2723 H   0  0  0  0  0  0  0  0  0  0  0  0
  1  2  1  0
  2  3  1  0
  3  4  1  0
  4  5  1  0
  5  6  1  0
  5  2  1  0
  6  2  1  0
  1  7  1  0
  3  8  1  0
  3  9  1  0
  4 10  1  0
  4 11  1  0
  5 12  1  0
  6 13  1  0
  6 14  1  0
M  END
