
     RDKit          3D

 17 19  0  0  0  0  0  0  0  0999 V2000
    1.1762   -2.2697    0.0349 O   0  0  0  0  0  0  0  0  0  0  0  0
    0.7024   -0.9495   -0.2702 C   0  0  0  0  0  0  0  0  0  0  0  0
    1.9158   -0.0296   -0.3559 C   0  0  0  0  0  0  0  0  0  0  0  0
    1.5087    1.2614   -0.2031 C   0  0  0  0  0  0  0  0  0  0  0  0
    0.0727    1.2298   -0.0361 C   0  0  0  0  0  0  0  0  0  0  0  0
   -1.2113    1.3803    0.0995 C   0  0  0  0  0  0  0  0  0  0  0  0
   -1.8576    0.0132    0.2422 C   0  0  0  0  0  0  0  0  0  0  0  0
   -0.6962   -0.7839   -0.4525 C   0  0  0  0  0  0  0  0  0  0  0  0
    0.0975   -0.1894    0.7056 C   0  0  0  0  0  0  0  0  0  0  0  0
    0.5263   -2.9357   -0.3064 H   0  0  0  0  0  0  0  0  0  0  0  0
    2.9335   -0.2813   -0.5098 H   0  0  0  0  0  0  0  0  0  0  0  0
    2.0629    2.1727   -0.2033 H   0  0  0  0  0  0  0  0  0  0  0  0
   -1.6352    2.3713    0.0933 H   0  0  0  0  0  0  0  0  0  0  0  0
   -1.9933   -0.2495    1.2727 H   0  0  0  0  0  0  0  0  0  0  0  0
   -2.7467   -0.1198   -0.3415 H   0  0  0  0  0  0  0  0  0  0  0  0
   -0.7755   -0.3661   -1.4718 H   0  0  0  0  0  0  0  0  0  0  0  0
   -0.0804   -0.2544    1.7024 H   0  0  0  0  0  0  0  0  0  0  0  0
  1  2  1  0
  2  3  1  0
  3  4  2  0
  4  5  1  0
  5  6  2  0
  6  7  1  0
  7  8  1  0
  8  9  1  0
  8  2  1  0
  9  2  1  0
  9  5  1  0
  1 10  1  0
  3 11  1  0
  4 12  1  0
  6 13  1  0
  7 14  1  0
  7 15  1  0
  8 16  1  0
  9 17  1  0
M  END
