
     RDKit          3D

 19 20  0  0  0  0  0  0  0  0999 V2000
    0.2265    1.8298   -1.0522 O   0  0  0  0  0  0  0  0  0  0  0  0
   -0.0940    0.7692   -0.2168 C   0  0  0  0  0  0  0  0  0  0  0  0
    0.7022    0.7245    1.0069 C   0  0  0  0  0  0  0  0  0  0  0  0
    1.6302   -0.2114    0.9408 C   0  0  0  0  0  0  0  0  0  0  0  0
    1.5797   -0.9317   -0.3563 C   0  0  0  0  0  0  0  0  0  0  0  0
    0.1937   -0.5639   -0.8627 C   0  0  0  0  0  0  0  0  0  0  0  0
   -0.6940   -1.4754   -0.3372 O   0  0  0  0  0  0  0  0  0  0  0  0
   -1.7514   -0.8144    0.2191 C   0  0  0  0  0  0  0  0  0  0  0  0
   -1.5794    0.6630    0.0219 C   0  0  0  0  0  0  0  0  0  0  0  0
    1.1047    2.2058   -0.8532 H   0  0  0  0  0  0  0  0  0  0  0  0
    0.6172    1.3472    1.9194 H   0  0  0  0  0  0  0  0  0  0  0  0
    2.3796   -0.4715    1.7239 H   0  0  0  0  0  0  0  0  0  0  0  0
    1.6629   -2.0100   -0.1398 H   0  0  0  0  0  0  0  0  0  0  0  0
    2.3753   -0.6335   -1.0430 H   0  0  0  0  0  0  0  0  0  0  0  0
    0.1872   -0.4948   -1.9584 H   0  0  0  0  0  0  0  0  0  0  0  0
   -2.6756   -1.1234   -0.3120 H   0  0  0  0  0  0  0  0  0  0  0  0
   -1.8501   -1.0470    1.3177 H   0  0  0  0  0  0  0  0  0  0  0  0
   -2.0935    0.9740   -0.8995 H   0  0  0  0  0  0  0  0  0  0  0  0
   -1.9213    1.2635    0.8815 H   0  0  0  0  0  0  0  0  0  0  0  0
  1  2  1  0
  2  3  1  0
  3  4  2  0
  4  5  1  0
  5  6  1  0
  6  7  1  0
  7  8  1  0
  8  9  1  0
  6  2  1  0
  9  2  1  0
  1 10  1  0
  3 11  1  0
  4 12  1  0
  5 13  1  0
  5 14  1  0
  6 15  1  0
  8 16  1  0
  8 17  1  0
  9 18  1  0
  9 19  1  0
M  END
