
     RDKit          2D

 19 21  0  0  0  0  0  0  0  0999 V2000
   -3.5929   -1.8107    0.0000 O   0  0  0  0  0  0  0  0  0  0  0  0
   -2.5323   -0.7500    0.0000 C   0  0  0  0  0  0  0  0  0  0  0  0
   -2.0158    0.6583    0.0000 C   0  0  0  0  0  0  0  0  0  0  0  0
    0.3943    1.2135    0.0000 C   0  0  0  0  0  0  0  0  0  0  0  0
    1.2760    0.0000    0.0000 O   0  0  0  0  0  0  0  0  0  0  0  0
    0.3943   -1.2135    0.0000 C   0  0  0  0  0  0  0  0  0  0  0  0
   -1.0323   -0.7500    0.0000 C   0  0  0  0  0  0  0  0  0  0  0  0
   -1.0323    0.7500    0.0000 C   0  0  0  0  0  0  0  0  0  0  0  0
   -1.5423   -0.2399    0.0000 C   0  0  0  0  0  0  0  0  0  0  0  0
   -5.0418   -1.4224    0.0000 H   0  0  0  0  0  0  0  0  0  0  0  0
   -3.5042    0.8447    0.0000 H   0  0  0  0  0  0  0  0  0  0  0  0
   -1.9029    1.4474    0.0000 H   0  0  0  0  0  0  0  0  0  0  0  0
    0.8578    2.6401    0.0000 H   0  0  0  0  0  0  0  0  0  0  0  0
    1.6933   -1.9635    0.0000 H   0  0  0  0  0  0  0  0  0  0  0  0
   -0.2158   -2.5838    0.0000 H   0  0  0  0  0  0  0  0  0  0  0  0
   -1.2669   -2.2315    0.0000 H   0  0  0  0  0  0  0  0  0  0  0  0
   -1.0601    1.5467    0.0000 H   0  0  0  0  0  0  0  0  0  0  0  0
   -4.0211    0.9328    0.0000 H   0  0  0  0  0  0  0  0  0  0  0  0
   -2.7151    2.2388    0.0000 H   0  0  0  0  0  0  0  0  0  0  0  0
  1  2  1  0
  2  3  1  0
  3  4  1  0
  4  5  1  0
  5  6  1  0
  6  7  1  0
  7  8  1  0
  8  9  1  0
  7  2  1  0
  9  2  1  0
  8  4  1  0
  1 10  1  0
  3 11  1  0
  3 12  1  0
  4 13  1  0
  6 14  1  0
  6 15  1  0
  7 16  1  0
  8 17  1  0
  9 18  1  0
  9 19  1  0
M  END
