
     RDKit          2D

 19 21  0  0  0  0  0  0  0  0999 V2000
   -2.1213   -1.0607    0.0000 O   0  0  0  0  0  0  0  0  0  0  0  0
   -1.0607    0.0000    0.0000 C   0  0  0  0  0  0  0  0  0  0  0  0
   -2.1213    1.0607    0.0000 C   0  0  0  0  0  0  0  0  0  0  0  0
   -1.0607    2.1213    0.0000 C   0  0  0  0  0  0  0  0  0  0  0  0
   -0.8041    1.2256    0.0000 C   0  0  0  0  0  0  0  0  0  0  0  0
   -0.3102   -0.1519    0.0000 C   0  0  0  0  0  0  0  0  0  0  0  0
   -0.0000   -1.0607    0.0000 C   0  0  0  0  0  0  0  0  0  0  0  0
    1.0607    0.0000    0.0000 O   0  0  0  0  0  0  0  0  0  0  0  0
    0.0000    1.0607    0.0000 C   0  0  0  0  0  0  0  0  0  0  0  0
   -1.9126   -2.5461    0.0000 H   0  0  0  0  0  0  0  0  0  0  0  0
   -3.0448    2.2427    0.0000 H   0  0  0  0  0  0  0  0  0  0  0  0
   -2.8193    0.5154    0.0000 H   0  0  0  0  0  0  0  0  0  0  0  0
   -1.0607    3.6213    0.0000 H   0  0  0  0  0  0  0  0  0  0  0  0
   -1.4712    0.8211    0.0000 H   0  0  0  0  0  0  0  0  0  0  0  0
   -3.0126    1.7156    0.0000 H   0  0  0  0  0  0  0  0  0  0  0  0
   -1.3274   -2.2532    0.0000 H   0  0  0  0  0  0  0  0  0  0  0  0
   -2.8560   -1.3325    0.0000 H   0  0  0  0  0  0  0  0  0  0  0  0
   -0.0000   -2.5607    0.0000 H   0  0  0  0  0  0  0  0  0  0  0  0
    1.0607    2.1213    0.0000 H   0  0  0  0  0  0  0  0  0  0  0  0
  1  2  1  0
  2  3  1  0
  3  4  1  0
  4  5  1  0
  5  6  1  0
  6  7  1  0
  7  8  1  0
  8  9  1  0
  7  2  1  0
  9  2  1  0
  9  4  1  0
  1 10  1  0
  3 11  1  0
  3 12  1  0
  4 13  1  0
  5 14  1  0
  5 15  1  0
  6 16  1  0
  6 17  1  0
  7 18  1  0
  9 19  1  0
M  END
