
     RDKit          3D

 19 21  0  0  0  0  0  0  0  0999 V2000
    1.4606    1.7682    0.8031 O   0  0  0  0  0  0  0  0  0  0  0  0
    1.0268    0.6295    0.0899 C   0  0  0  0  0  0  0  0  0  0  0  0
   -0.0398    0.8563   -0.9104 C   0  0  0  0  0  0  0  0  0  0  0  0
   -1.0563   -0.2366   -0.8045 C   0  0  0  0  0  0  0  0  0  0  0  0
   -1.9485   -0.1416    0.4018 C   0  0  0  0  0  0  0  0  0  0  0  0
   -1.6383   -1.4776    0.7152 O   0  0  0  0  0  0  0  0  0  0  0  0
   -0.4451   -1.2971    0.0355 C   0  0  0  0  0  0  0  0  0  0  0  0
    0.6356   -0.5977    0.8060 C   0  0  0  0  0  0  0  0  0  0  0  0
    1.9524   -0.5043    0.0789 C   0  0  0  0  0  0  0  0  0  0  0  0
    0.9040    2.5604    0.5358 H   0  0  0  0  0  0  0  0  0  0  0  0
   -0.5670    1.8164   -0.6647 H   0  0  0  0  0  0  0  0  0  0  0  0
    0.3257    0.9912   -1.9542 H   0  0  0  0  0  0  0  0  0  0  0  0
   -1.5222   -0.5164   -1.7500 H   0  0  0  0  0  0  0  0  0  0  0  0
   -3.0256   -0.0518    0.2086 H   0  0  0  0  0  0  0  0  0  0  0  0
   -1.5092    0.5504    1.1413 H   0  0  0  0  0  0  0  0  0  0  0  0
   -0.0775   -2.1960   -0.5291 H   0  0  0  0  0  0  0  0  0  0  0  0
    0.5958   -0.5281    1.9044 H   0  0  0  0  0  0  0  0  0  0  0  0
    2.0976   -1.1555   -0.8274 H   0  0  0  0  0  0  0  0  0  0  0  0
    2.8310   -0.4695    0.7199 H   0  0  0  0  0  0  0  0  0  0  0  0
  1  2  1  0
  2  3  1  0
  3  4  1  0
  4  5  1  0
  5  6  1  0
  6  7  1  0
  7  8  1  0
  8  9  1  0
  8  2  1  0
  9  2  1  0
  7  4  1  0
  1 10  1  0
  3 11  1  0
  3 12  1  0
  4 13  1  0
  5 14  1  0
  5 15  1  0
  7 16  1  0
  8 17  1  0
  9 18  1  0
  9 19  1  0
M  END
