
     RDKit          3D

 21 23  0  0  0  0  0  0  0  0999 V2000
   -0.5762    0.9411   -1.9700 O   0  0  0  0  0  0  0  0  0  0  0  0
   -0.5197    0.3052   -0.8176 C   0  0  0  0  0  0  0  0  0  0  0  0
   -1.2481    0.8744    0.4002 C   0  0  0  0  0  0  0  0  0  0  0  0
   -0.9109   -0.2410    1.4110 C   0  0  0  0  0  0  0  0  0  0  0  0
   -0.1339   -1.1636    0.5102 C   0  0  0  0  0  0  0  0  0  0  0  0
   -1.0234   -1.1471   -0.7461 C   0  0  0  0  0  0  0  0  0  0  0  0
    0.7252   -0.1999   -0.2163 C   0  0  0  0  0  0  0  0  0  0  0  0
    2.0361   -0.2852   -0.6788 C   0  0  0  0  0  0  0  0  0  0  0  0
    1.6460    0.6802    0.4890 C   0  0  0  0  0  0  0  0  0  0  0  0
   -1.1053    1.7808   -1.9245 H   0  0  0  0  0  0  0  0  0  0  0  0
   -2.3242    0.9622    0.2441 H   0  0  0  0  0  0  0  0  0  0  0  0
   -0.7416    1.8044    0.7028 H   0  0  0  0  0  0  0  0  0  0  0  0
   -1.7965   -0.6766    1.8537 H   0  0  0  0  0  0  0  0  0  0  0  0
   -0.1833    0.1687    2.1546 H   0  0  0  0  0  0  0  0  0  0  0  0
    0.2138   -2.0960    0.8563 H   0  0  0  0  0  0  0  0  0  0  0  0
   -0.6796   -1.7879   -1.5558 H   0  0  0  0  0  0  0  0  0  0  0  0
   -2.1020   -1.2131   -0.5220 H   0  0  0  0  0  0  0  0  0  0  0  0
    2.3796    0.2408   -1.5849 H   0  0  0  0  0  0  0  0  0  0  0  0
    2.7209   -1.0953   -0.3523 H   0  0  0  0  0  0  0  0  0  0  0  0
    1.9699    0.3952    1.4911 H   0  0  0  0  0  0  0  0  0  0  0  0
    1.6532    1.7526    0.2549 H   0  0  0  0  0  0  0  0  0  0  0  0
  1  2  1  0
  2  3  1  0
  3  4  1  0
  4  5  1  0
  5  6  1  0
  5  7  1  0
  7  8  1  0
  8  9  1  0
  6  2  1  0
  9  7  1  0
  7  2  1  0
  1 10  1  0
  3 11  1  0
  3 12  1  0
  4 13  1  0
  4 14  1  0
  5 15  1  0
  6 16  1  0
  6 17  1  0
  8 18  1  0
  8 19  1  0
  9 20  1  0
  9 21  1  0
M  END
