
     RDKit          3D

 17 19  0  0  0  0  0  0  0  0999 V2000
   -1.9180    0.8897    1.0848 O   0  0  0  0  0  0  0  0  0  0  0  0
   -0.7388    0.4797    0.5455 C   0  0  0  0  0  0  0  0  0  0  0  0
   -0.3606   -0.9693    0.4507 C   0  0  0  0  0  0  0  0  0  0  0  0
   -0.5208   -0.8599   -1.0451 C   0  0  0  0  0  0  0  0  0  0  0  0
   -0.4794    0.6113   -0.9383 C   0  0  0  0  0  0  0  0  0  0  0  0
    0.3041    1.3753    0.0290 C   0  0  0  0  0  0  0  0  0  0  0  0
    1.5407    0.9843    0.4941 O   0  0  0  0  0  0  0  0  0  0  0  0
    1.8468   -0.3259    0.2328 C   0  0  0  0  0  0  0  0  0  0  0  0
    0.9464   -1.2320    0.7806 O   0  0  0  0  0  0  0  0  0  0  0  0
   -1.9275    0.6729    2.0404 H   0  0  0  0  0  0  0  0  0  0  0  0
   -1.0421   -1.6545    0.9621 H   0  0  0  0  0  0  0  0  0  0  0  0
   -1.5551   -1.2243   -1.3146 H   0  0  0  0  0  0  0  0  0  0  0  0
    0.2070   -1.3763   -1.6632 H   0  0  0  0  0  0  0  0  0  0  0  0
   -1.1900    1.1607   -1.5778 H   0  0  0  0  0  0  0  0  0  0  0  0
    0.1117    2.4527    0.0985 H   0  0  0  0  0  0  0  0  0  0  0  0
    1.9405   -0.4359   -0.8756 H   0  0  0  0  0  0  0  0  0  0  0  0
    2.8349   -0.5484    0.6961 H   0  0  0  0  0  0  0  0  0  0  0  0
  1  2  1  0
  2  3  1  0
  3  4  1  0
  4  5  1  0
  5  6  1  0
  6  7  1  0
  7  8  1  0
  8  9  1  0
  5  2  1  0
  6  2  1  0
  9  3  1  0
  1 10  1  0
  3 11  1  0
  4 12  1  0
  4 13  1  0
  5 14  1  0
  6 15  1  0
  8 16  1  0
  8 17  1  0
M  END
