
     RDKit          3D

 17 19  0  0  0  0  0  0  0  0999 V2000
   -2.2587    0.1869    0.3454 O   0  0  0  0  0  0  0  0  0  0  0  0
   -0.9810   -0.1666    0.2589 C   0  0  0  0  0  0  0  0  0  0  0  0
   -0.5109   -1.4634    0.7561 C   0  0  0  0  0  0  0  0  0  0  0  0
    0.8183   -1.4349    0.4950 C   0  0  0  0  0  0  0  0  0  0  0  0
    0.9923   -0.1159   -0.1344 C   0  0  0  0  0  0  0  0  0  0  0  0
    2.1887    0.3025   -0.5406 O   0  0  0  0  0  0  0  0  0  0  0  0
   -0.2095    0.0585   -1.0050 C   0  0  0  0  0  0  0  0  0  0  0  0
   -0.1614    1.5075   -0.6143 C   0  0  0  0  0  0  0  0  0  0  0  0
    0.1033    0.7796    0.6744 C   0  0  0  0  0  0  0  0  0  0  0  0
   -2.8192   -0.2778   -0.3446 H   0  0  0  0  0  0  0  0  0  0  0  0
   -1.1005   -2.2442    1.2184 H   0  0  0  0  0  0  0  0  0  0  0  0
    1.5223   -2.2262    0.7216 H   0  0  0  0  0  0  0  0  0  0  0  0
    2.8697    0.1415    0.1317 H   0  0  0  0  0  0  0  0  0  0  0  0
   -0.3832   -0.3268   -1.9107 H   0  0  0  0  0  0  0  0  0  0  0  0
    0.7569    2.0470   -0.9432 H   0  0  0  0  0  0  0  0  0  0  0  0
   -1.1012    2.0615   -0.6847 H   0  0  0  0  0  0  0  0  0  0  0  0
    0.2741    1.1707    1.5760 H   0  0  0  0  0  0  0  0  0  0  0  0
  1  2  1  0
  2  3  1  0
  3  4  2  0
  4  5  1  0
  5  6  1  0
  5  7  1  0
  7  8  1  0
  8  9  1  0
  7  2  1  0
  9  2  1  0
  9  5  1  0
  1 10  1  0
  3 11  1  0
  4 12  1  0
  6 13  1  0
  7 14  1  0
  8 15  1  0
  8 16  1  0
  9 17  1  0
M  END
