
     RDKit          3D

 17 19  0  0  0  0  0  0  0  0999 V2000
   -1.0213    2.0106    0.6272 O   0  0  0  0  0  0  0  0  0  0  0  0
   -0.5386    0.7465    0.4636 C   0  0  0  0  0  0  0  0  0  0  0  0
   -1.4585   -0.3882    0.0443 C   0  0  0  0  0  0  0  0  0  0  0  0
   -0.5606   -1.4434   -0.5397 C   0  0  0  0  0  0  0  0  0  0  0  0
    0.8666   -0.9201   -0.4017 C   0  0  0  0  0  0  0  0  0  0  0  0
    1.2334   -0.9164    0.9351 O   0  0  0  0  0  0  0  0  0  0  0  0
    0.6702    0.3244    1.2061 C   0  0  0  0  0  0  0  0  0  0  0  0
    0.6600    0.5463   -0.3310 C   0  0  0  0  0  0  0  0  0  0  0  0
    1.5403    1.4752   -0.7453 O   0  0  0  0  0  0  0  0  0  0  0  0
   -1.0881    2.4312   -0.2778 H   0  0  0  0  0  0  0  0  0  0  0  0
   -2.2551   -0.0657   -0.6377 H   0  0  0  0  0  0  0  0  0  0  0  0
   -1.8737   -0.8100    0.9927 H   0  0  0  0  0  0  0  0  0  0  0  0
   -0.8236   -1.5664   -1.6082 H   0  0  0  0  0  0  0  0  0  0  0  0
   -0.5940   -2.3930    0.0111 H   0  0  0  0  0  0  0  0  0  0  0  0
    1.5862   -1.3195   -1.1175 H   0  0  0  0  0  0  0  0  0  0  0  0
    1.1881    1.0603    1.8214 H   0  0  0  0  0  0  0  0  0  0  0  0
    2.4685    1.2282   -0.4425 H   0  0  0  0  0  0  0  0  0  0  0  0
  1  2  1  0
  2  3  1  0
  3  4  1  0
  4  5  1  0
  5  6  1  0
  6  7  1  0
  7  8  1  0
  8  9  1  0
  7  2  1  0
  8  2  1  0
  8  5  1  0
  1 10  1  0
  3 11  1  0
  3 12  1  0
  4 13  1  0
  4 14  1  0
  5 15  1  0
  7 16  1  0
  9 17  1  0
M  END
