
     RDKit          3D

 19 21  0  0  0  0  0  0  0  0999 V2000
    1.7745   -1.2297   -1.1561 O   0  0  0  0  0  0  0  0  0  0  0  0
    1.1314   -0.0493   -0.7264 C   0  0  0  0  0  0  0  0  0  0  0  0
    2.0792    1.0271   -0.3174 C   0  0  0  0  0  0  0  0  0  0  0  0
    1.6266    1.0617    0.9830 O   0  0  0  0  0  0  0  0  0  0  0  0
    0.8404   -0.0330    0.7579 C   0  0  0  0  0  0  0  0  0  0  0  0
   -0.2039   -0.0577   -0.2403 C   0  0  0  0  0  0  0  0  0  0  0  0
   -1.2551    0.9654   -0.4370 C   0  0  0  0  0  0  0  0  0  0  0  0
   -2.2303   -0.0665    0.1530 C   0  0  0  0  0  0  0  0  0  0  0  0
   -1.2137   -1.1266   -0.2967 C   0  0  0  0  0  0  0  0  0  0  0  0
    2.0813   -1.7799   -0.4027 H   0  0  0  0  0  0  0  0  0  0  0  0
    3.1680    0.7410   -0.3165 H   0  0  0  0  0  0  0  0  0  0  0  0
    1.9669    2.0123   -0.7912 H   0  0  0  0  0  0  0  0  0  0  0  0
    1.0235   -0.9570    1.3565 H   0  0  0  0  0  0  0  0  0  0  0  0
   -1.2033    1.8866    0.1402 H   0  0  0  0  0  0  0  0  0  0  0  0
   -1.5793    1.1300   -1.5060 H   0  0  0  0  0  0  0  0  0  0  0  0
   -3.1948   -0.1113   -0.3421 H   0  0  0  0  0  0  0  0  0  0  0  0
   -2.2536    0.0029    1.2708 H   0  0  0  0  0  0  0  0  0  0  0  0
   -1.0231   -1.9100    0.4726 H   0  0  0  0  0  0  0  0  0  0  0  0
   -1.5348   -1.5059   -1.2795 H   0  0  0  0  0  0  0  0  0  0  0  0
  1  2  1  0
  2  3  1  0
  3  4  1  0
  4  5  1  0
  5  6  1  0
  6  7  1  0
  7  8  1  0
  8  9  1  0
  5  2  1  0
  9  6  1  0
  6  2  1  0
  1 10  1  0
  3 11  1  0
  3 12  1  0
  5 13  1  0
  7 14  1  0
  7 15  1  0
  8 16  1  0
  8 17  1  0
  9 18  1  0
  9 19  1  0
M  END
