
     RDKit          3D

 19 20  0  0  0  0  0  0  0  0999 V2000
   -1.7202   -0.4075   -1.4297 O   0  0  0  0  0  0  0  0  0  0  0  0
   -0.8801   -0.2344   -0.3347 C   0  0  0  0  0  0  0  0  0  0  0  0
    0.2283   -1.2097   -0.3171 C   0  0  0  0  0  0  0  0  0  0  0  0
    1.4390   -0.8061    0.4574 C   0  0  0  0  0  0  0  0  0  0  0  0
    1.8367    0.5864    0.0763 C   0  0  0  0  0  0  0  0  0  0  0  0
    0.9055    1.5009   -0.1429 C   0  0  0  0  0  0  0  0  0  0  0  0
   -0.5155    1.1749   -0.0190 C   0  0  0  0  0  0  0  0  0  0  0  0
   -0.8389    0.9234    1.3321 O   0  0  0  0  0  0  0  0  0  0  0  0
   -1.6802   -0.0799    0.9181 C   0  0  0  0  0  0  0  0  0  0  0  0
   -1.2675   -0.1856   -2.2842 H   0  0  0  0  0  0  0  0  0  0  0  0
    0.5655   -1.3664   -1.3838 H   0  0  0  0  0  0  0  0  0  0  0  0
   -0.1053   -2.2173    0.0179 H   0  0  0  0  0  0  0  0  0  0  0  0
    2.2685   -1.4812    0.1537 H   0  0  0  0  0  0  0  0  0  0  0  0
    1.3253   -0.9114    1.5530 H   0  0  0  0  0  0  0  0  0  0  0  0
    2.8713    0.8912   -0.0319 H   0  0  0  0  0  0  0  0  0  0  0  0
    1.1978    2.5025   -0.4173 H   0  0  0  0  0  0  0  0  0  0  0  0
   -1.1871    1.9512   -0.4297 H   0  0  0  0  0  0  0  0  0  0  0  0
   -1.7502   -0.9711    1.5728 H   0  0  0  0  0  0  0  0  0  0  0  0
   -2.6930    0.3399    0.7088 H   0  0  0  0  0  0  0  0  0  0  0  0
  1  2  1  0
  2  3  1  0
  3  4  1  0
  4  5  1  0
  5  6  2  0
  6  7  1  0
  7  8  1  0
  8  9  1  0
  7  2  1  0
  9  2  1  0
  1 10  1  0
  3 11  1  0
  3 12  1  0
  4 13  1  0
  4 14  1  0
  5 15  1  0
  6 16  1  0
  7 17  1  0
  9 18  1  0
  9 19  1  0
M  END
