
     RDKit          3D

 16 18  0  0  0  0  0  0  0  0999 V2000
    0.3172   -1.7530   -1.3499 O   0  0  0  0  0  0  0  0  0  0  0  0
    0.2468   -0.6648   -0.5759 C   0  0  0  0  0  0  0  0  0  0  0  0
   -0.7410    0.4361   -0.7213 C   0  0  0  0  0  0  0  0  0  0  0  0
    0.0819    1.6299   -0.4179 C   0  0  0  0  0  0  0  0  0  0  0  0
    1.1883    1.2983    0.2281 C   0  0  0  0  0  0  0  0  0  0  0  0
    1.1966   -0.2011    0.4173 C   0  0  0  0  0  0  0  0  0  0  0  0
   -0.1106   -0.7503    0.9085 C   0  0  0  0  0  0  0  0  0  0  0  0
   -1.3938   -0.0676    0.5618 C   0  0  0  0  0  0  0  0  0  0  0  0
    0.7794   -2.4885   -0.8855 H   0  0  0  0  0  0  0  0  0  0  0  0
   -1.3717    0.4727   -1.5983 H   0  0  0  0  0  0  0  0  0  0  0  0
   -0.2144    2.6273   -0.7028 H   0  0  0  0  0  0  0  0  0  0  0  0
    1.9700    1.9816    0.5715 H   0  0  0  0  0  0  0  0  0  0  0  0
    2.1039   -0.7038    0.7066 H   0  0  0  0  0  0  0  0  0  0  0  0
   -0.1601   -1.7309    1.3819 H   0  0  0  0  0  0  0  0  0  0  0  0
   -2.1604   -0.8309    0.2758 H   0  0  0  0  0  0  0  0  0  0  0  0
   -1.7323    0.7451    1.2004 H   0  0  0  0  0  0  0  0  0  0  0  0
  1  2  1  0
  2  3  1  0
  3  4  1  0
  4  5  2  0
  5  6  1  0
  6  7  1  0
  7  8  1  0
  6  2  1  0
  7  2  1  0
  8  3  1  0
  1  9  1  0
  3 10  1  0
  4 11  1  0
  5 12  1  0
  6 13  1  0
  7 14  1  0
  8 15  1  0
  8 16  1  0
M  END
