
     RDKit          3D

 21 22  0  0  0  0  0  0  0  0999 V2000
   -2.2290   -0.9811    1.2716 O   0  0  0  0  0  0  0  0  0  0  0  0
   -1.1550   -0.5138    0.4757 C   0  0  0  0  0  0  0  0  0  0  0  0
    0.1714   -0.6788    1.1263 C   0  0  0  0  0  0  0  0  0  0  0  0
    1.2185   -1.0381    0.1024 C   0  0  0  0  0  0  0  0  0  0  0  0
    1.8310    0.1496   -0.5261 C   0  0  0  0  0  0  0  0  0  0  0  0
    1.0607    1.3809   -0.4944 C   0  0  0  0  0  0  0  0  0  0  0  0
   -0.2155    1.6417   -0.3817 C   0  0  0  0  0  0  0  0  0  0  0  0
   -1.3504    0.7368   -0.2431 C   0  0  0  0  0  0  0  0  0  0  0  0
   -1.3811   -0.5800   -0.9651 C   0  0  0  0  0  0  0  0  0  0  0  0
   -2.2663   -0.3477    2.0464 H   0  0  0  0  0  0  0  0  0  0  0  0
    0.1422   -1.5101    1.8591 H   0  0  0  0  0  0  0  0  0  0  0  0
    0.5330    0.2229    1.6576 H   0  0  0  0  0  0  0  0  0  0  0  0
    0.8130   -1.7167   -0.6836 H   0  0  0  0  0  0  0  0  0  0  0  0
    2.0141   -1.6236    0.6083 H   0  0  0  0  0  0  0  0  0  0  0  0
    2.8295    0.3575   -0.0400 H   0  0  0  0  0  0  0  0  0  0  0  0
    2.0973   -0.0622   -1.5942 H   0  0  0  0  0  0  0  0  0  0  0  0
    1.6732    2.2897   -0.5845 H   0  0  0  0  0  0  0  0  0  0  0  0
   -0.4811    2.7150   -0.3926 H   0  0  0  0  0  0  0  0  0  0  0  0
   -2.3782    1.2014   -0.1693 H   0  0  0  0  0  0  0  0  0  0  0  0
   -0.5790   -0.6568   -1.7260 H   0  0  0  0  0  0  0  0  0  0  0  0
   -2.3483   -0.9867   -1.3467 H   0  0  0  0  0  0  0  0  0  0  0  0
  1  2  1  0
  2  3  1  0
  3  4  1  0
  4  5  1  0
  5  6  1  0
  6  7  2  0
  7  8  1  0
  8  9  1  0
  8  2  1  0
  9  2  1  0
  1 10  1  0
  3 11  1  0
  3 12  1  0
  4 13  1  0
  4 14  1  0
  5 15  1  0
  5 16  1  0
  6 17  1  0
  7 18  1  0
  8 19  1  0
  9 20  1  0
  9 21  1  0
M  END
