
     RDKit          3D

 17 19  0  0  0  0  0  0  0  0999 V2000
    2.0298   -0.5133    0.6010 O   0  0  0  0  0  0  0  0  0  0  0  0
    0.8167   -0.1698    0.3019 C   0  0  0  0  0  0  0  0  0  0  0  0
    0.6247    0.8700   -0.8222 C   0  0  0  0  0  0  0  0  0  0  0  0
   -0.8684    1.0712   -0.4902 C   0  0  0  0  0  0  0  0  0  0  0  0
   -0.6416    1.5836    0.8157 O   0  0  0  0  0  0  0  0  0  0  0  0
   -0.1177    0.3676    1.3380 C   0  0  0  0  0  0  0  0  0  0  0  0
   -1.3353   -0.3550    1.1856 O   0  0  0  0  0  0  0  0  0  0  0  0
   -1.3248   -0.3182   -0.2367 C   0  0  0  0  0  0  0  0  0  0  0  0
   -0.0821   -1.2301   -0.3690 C   0  0  0  0  0  0  0  0  0  0  0  0
    2.2817   -1.4396    0.7489 H   0  0  0  0  0  0  0  0  0  0  0  0
    0.7631    0.4332   -1.8080 H   0  0  0  0  0  0  0  0  0  0  0  0
    1.2139    1.7536   -0.5962 H   0  0  0  0  0  0  0  0  0  0  0  0
   -1.3959    1.6950   -1.1439 H   0  0  0  0  0  0  0  0  0  0  0  0
    0.2298    0.4335    2.3376 H   0  0  0  0  0  0  0  0  0  0  0  0
   -2.1919   -0.6828   -0.7039 H   0  0  0  0  0  0  0  0  0  0  0  0
   -0.1973   -2.1152    0.2483 H   0  0  0  0  0  0  0  0  0  0  0  0
    0.1953   -1.3836   -1.4070 H   0  0  0  0  0  0  0  0  0  0  0  0
  1  2  1  0
  2  3  1  0
  3  4  1  0
  4  5  1  0
  5  6  1  0
  6  7  1  0
  7  8  1  0
  8  9  1  0
  6  2  1  0
  9  2  1  0
  8  4  1  0
  1 10  1  0
  3 11  1  0
  3 12  1  0
  4 13  1  0
  6 14  1  0
  8 15  1  0
  9 16  1  0
  9 17  1  0
M  END
