
     RDKit          3D

 17 20  0  0  0  0  0  0  0  0999 V2000
    2.4179   -0.1662    0.4753 O   0  0  0  0  0  0  0  0  0  0  0  0
    1.0917   -0.1249    0.1048 C   0  0  0  0  0  0  0  0  0  0  0  0
    0.6369    1.2066   -0.4401 C   0  0  0  0  0  0  0  0  0  0  0  0
   -0.8574    1.0837   -0.4724 C   0  0  0  0  0  0  0  0  0  0  0  0
   -1.5356   -0.1961   -0.7724 C   0  0  0  0  0  0  0  0  0  0  0  0
   -0.7179   -1.2272   -1.1997 O   0  0  0  0  0  0  0  0  0  0  0  0
    0.3536   -1.3168   -0.3493 C   0  0  0  0  0  0  0  0  0  0  0  0
    0.0091   -0.6426    0.9354 C   0  0  0  0  0  0  0  0  0  0  0  0
   -1.2006    0.1542    0.6151 C   0  0  0  0  0  0  0  0  0  0  0  0
    2.6421   -0.9085    1.0718 H   0  0  0  0  0  0  0  0  0  0  0  0
    1.0950    1.3141   -1.4487 H   0  0  0  0  0  0  0  0  0  0  0  0
    0.9363    2.0480    0.2322 H   0  0  0  0  0  0  0  0  0  0  0  0
   -1.3911    2.0119   -0.6835 H   0  0  0  0  0  0  0  0  0  0  0  0
   -2.5759   -0.1742   -1.0887 H   0  0  0  0  0  0  0  0  0  0  0  0
    0.9138   -2.2640   -0.3772 H   0  0  0  0  0  0  0  0  0  0  0  0
    0.1239   -1.2396    1.8328 H   0  0  0  0  0  0  0  0  0  0  0  0
   -1.9419    0.4417    1.3733 H   0  0  0  0  0  0  0  0  0  0  0  0
  1  2  1  0
  2  3  1  0
  3  4  1  0
  4  5  1  0
  5  6  1  0
  6  7  1  0
  7  8  1  0
  8  9  1  0
  7  2  1  0
  8  2  1  0
  9  4  1  0
  9  5  1  0
  1 10  1  0
  3 11  1  0
  3 12  1  0
  4 13  1  0
  5 14  1  0
  7 15  1  0
  8 16  1  0
  9 17  1  0
M  END
