
     RDKit          3D

 19 20  0  0  0  0  0  0  0  0999 V2000
   -1.6058    0.9005    1.0700 O   0  0  0  0  0  0  0  0  0  0  0  0
   -0.7758    0.3391    0.1418 C   0  0  0  0  0  0  0  0  0  0  0  0
   -0.0647    1.4642   -0.6124 C   0  0  0  0  0  0  0  0  0  0  0  0
    0.9036    1.8144    0.3589 O   0  0  0  0  0  0  0  0  0  0  0  0
    1.5278    0.5655    0.5237 C   0  0  0  0  0  0  0  0  0  0  0  0
    0.3960   -0.4072    0.7251 C   0  0  0  0  0  0  0  0  0  0  0  0
    0.5661   -1.5493   -0.2285 C   0  0  0  0  0  0  0  0  0  0  0  0
   -0.5599   -1.7024   -0.9659 O   0  0  0  0  0  0  0  0  0  0  0  0
   -1.4104   -0.6523   -0.7695 C   0  0  0  0  0  0  0  0  0  0  0  0
   -1.3800    0.7170    2.0104 H   0  0  0  0  0  0  0  0  0  0  0  0
    0.4117    1.0860   -1.5302 H   0  0  0  0  0  0  0  0  0  0  0  0
   -0.7392    2.3066   -0.7884 H   0  0  0  0  0  0  0  0  0  0  0  0
    2.0348    0.3601   -0.4585 H   0  0  0  0  0  0  0  0  0  0  0  0
    2.2760    0.5609    1.3124 H   0  0  0  0  0  0  0  0  0  0  0  0
    0.2544   -0.7075    1.7735 H   0  0  0  0  0  0  0  0  0  0  0  0
    0.8750   -2.4807    0.3183 H   0  0  0  0  0  0  0  0  0  0  0  0
    1.4209   -1.3585   -0.9400 H   0  0  0  0  0  0  0  0  0  0  0  0
   -2.3217   -1.0624   -0.2420 H   0  0  0  0  0  0  0  0  0  0  0  0
   -1.8086   -0.1940   -1.6988 H   0  0  0  0  0  0  0  0  0  0  0  0
  1  2  1  0
  2  3  1  0
  3  4  1  0
  4  5  1  0
  5  6  1  0
  6  7  1  0
  7  8  1  0
  8  9  1  0
  6  2  1  0
  9  2  1  0
  1 10  1  0
  3 11  1  0
  3 12  1  0
  5 13  1  0
  5 14  1  0
  6 15  1  0
  7 16  1  0
  7 17  1  0
  9 18  1  0
  9 19  1  0
M  END
