
     RDKit          3D

 21 23  0  0  0  0  0  0  0  0999 V2000
   -1.1487   -1.0305   -0.9953 O   0  0  0  0  0  0  0  0  0  0  0  0
   -1.4129   -0.0439   -0.0029 C   0  0  0  0  0  0  0  0  0  0  0  0
   -1.1537    1.2906   -0.5813 C   0  0  0  0  0  0  0  0  0  0  0  0
    0.3655    1.1635   -0.8318 C   0  0  0  0  0  0  0  0  0  0  0  0
    0.7915    0.0105    0.0988 C   0  0  0  0  0  0  0  0  0  0  0  0
    1.3645   -1.2136   -0.4336 C   0  0  0  0  0  0  0  0  0  0  0  0
    2.1985   -0.2178    0.3652 C   0  0  0  0  0  0  0  0  0  0  0  0
   -0.2833    0.1024    1.1021 C   0  0  0  0  0  0  0  0  0  0  0  0
   -1.5184   -0.5442    1.3012 C   0  0  0  0  0  0  0  0  0  0  0  0
   -1.7932   -1.7737   -0.8874 H   0  0  0  0  0  0  0  0  0  0  0  0
   -1.3596    2.0956    0.1427 H   0  0  0  0  0  0  0  0  0  0  0  0
   -1.7017    1.3884   -1.5323 H   0  0  0  0  0  0  0  0  0  0  0  0
    0.5649    0.9236   -1.8843 H   0  0  0  0  0  0  0  0  0  0  0  0
    0.8915    2.0604   -0.4650 H   0  0  0  0  0  0  0  0  0  0  0  0
    1.1474   -2.2022    0.0001 H   0  0  0  0  0  0  0  0  0  0  0  0
    1.5346   -1.2458   -1.5425 H   0  0  0  0  0  0  0  0  0  0  0  0
    2.9255    0.4231   -0.2056 H   0  0  0  0  0  0  0  0  0  0  0  0
    2.6122   -0.5936    1.2973 H   0  0  0  0  0  0  0  0  0  0  0  0
   -0.2139    1.1308    1.5837 H   0  0  0  0  0  0  0  0  0  0  0  0
   -1.5137   -1.6424    1.4934 H   0  0  0  0  0  0  0  0  0  0  0  0
   -2.2971   -0.0811    1.9778 H   0  0  0  0  0  0  0  0  0  0  0  0
  1  2  1  0
  2  3  1  0
  3  4  1  0
  4  5  1  0
  5  6  1  0
  6  7  1  0
  5  8  1  0
  8  9  1  0
  8  2  1  0
  9  2  1  0
  7  5  1  0
  1 10  1  0
  3 11  1  0
  3 12  1  0
  4 13  1  0
  4 14  1  0
  6 15  1  0
  6 16  1  0
  7 17  1  0
  7 18  1  0
  8 19  1  0
  9 20  1  0
  9 21  1  0
M  END
