
     RDKit          3D

 17 21  0  0  0  0  0  0  0  0999 V2000
    2.4082    0.6057   -0.5117 O   0  0  0  0  0  0  0  0  0  0  0  0
    1.0856    0.3277   -0.3525 C   0  0  0  0  0  0  0  0  0  0  0  0
    0.5564   -1.0852   -0.4762 C   0  0  0  0  0  0  0  0  0  0  0  0
   -0.3948   -1.2164    0.6297 C   0  0  0  0  0  0  0  0  0  0  0  0
   -0.8648   -0.9492   -0.8161 C   0  0  0  0  0  0  0  0  0  0  0  0
   -1.2520    0.4081   -0.4305 C   0  0  0  0  0  0  0  0  0  0  0  0
   -0.8308    0.1439    0.9762 C   0  0  0  0  0  0  0  0  0  0  0  0
    0.3716    0.9855    0.7564 C   0  0  0  0  0  0  0  0  0  0  0  0
   -0.0188    1.2244   -0.6277 C   0  0  0  0  0  0  0  0  0  0  0  0
    2.8931    0.2237    0.2885 H   0  0  0  0  0  0  0  0  0  0  0  0
    1.1804   -1.8828   -0.8696 H   0  0  0  0  0  0  0  0  0  0  0  0
   -0.7054   -2.1249    1.1066 H   0  0  0  0  0  0  0  0  0  0  0  0
   -1.5004   -1.7110   -1.2235 H   0  0  0  0  0  0  0  0  0  0  0  0
   -2.2119    0.8196   -0.6380 H   0  0  0  0  0  0  0  0  0  0  0  0
   -1.4997    0.3400    1.7843 H   0  0  0  0  0  0  0  0  0  0  0  0
    0.7813    1.6831    1.4540 H   0  0  0  0  0  0  0  0  0  0  0  0
    0.0020    2.2079   -1.0499 H   0  0  0  0  0  0  0  0  0  0  0  0
  1  2  1  0
  2  3  1  0
  3  4  1  0
  4  5  1  0
  5  6  1  0
  6  7  1  0
  7  8  1  0
  8  9  1  0
  8  2  1  0
  9  2  1  0
  5  3  1  0
  9  6  1  0
  7  4  1  0
  1 10  1  0
  3 11  1  0
  4 12  1  0
  5 13  1  0
  6 14  1  0
  7 15  1  0
  8 16  1  0
  9 17  1  0
M  END
