
     RDKit          3D

 17 20  0  0  0  0  0  0  0  0999 V2000
    2.3200   -0.6177    0.7655 O   0  0  0  0  0  0  0  0  0  0  0  0
    1.0475   -0.1767    0.5152 C   0  0  0  0  0  0  0  0  0  0  0  0
    0.8608    1.3023    0.3163 C   0  0  0  0  0  0  0  0  0  0  0  0
   -0.4204    1.6512    0.6584 O   0  0  0  0  0  0  0  0  0  0  0  0
   -1.3793    0.9088    0.0357 C   0  0  0  0  0  0  0  0  0  0  0  0
   -1.4323   -0.4472    0.6134 C   0  0  0  0  0  0  0  0  0  0  0  0
   -0.9646   -0.1629   -0.8459 C   0  0  0  0  0  0  0  0  0  0  0  0
    0.2746   -0.8959   -0.5096 C   0  0  0  0  0  0  0  0  0  0  0  0
   -0.0917   -0.9183    1.0064 C   0  0  0  0  0  0  0  0  0  0  0  0
    2.9542   -0.1457    0.1557 H   0  0  0  0  0  0  0  0  0  0  0  0
    0.9586    1.4800   -0.7944 H   0  0  0  0  0  0  0  0  0  0  0  0
    1.6073    1.9092    0.8338 H   0  0  0  0  0  0  0  0  0  0  0  0
   -2.3556    1.3827   -0.1676 H   0  0  0  0  0  0  0  0  0  0  0  0
   -2.3324   -1.0391    0.7032 H   0  0  0  0  0  0  0  0  0  0  0  0
   -1.6259   -0.4932   -1.6497 H   0  0  0  0  0  0  0  0  0  0  0  0
    0.5162   -1.8720   -0.9037 H   0  0  0  0  0  0  0  0  0  0  0  0
    0.0629   -1.8656    1.5402 H   0  0  0  0  0  0  0  0  0  0  0  0
  1  2  1  0
  2  3  1  0
  3  4  1  0
  4  5  1  0
  5  6  1  0
  6  7  1  0
  7  8  1  0
  8  9  1  0
  8  2  1  0
  9  2  1  0
  7  5  1  0
  9  6  1  0
  1 10  1  0
  3 11  1  0
  3 12  1  0
  5 13  1  0
  6 14  1  0
  7 15  1  0
  8 16  1  0
  9 17  1  0
M  END
