
     RDKit          3D

 19 21  0  0  0  0  0  0  0  0999 V2000
   -2.1915   -1.1976   -0.5782 O   0  0  0  0  0  0  0  0  0  0  0  0
   -1.2148   -0.4233    0.0217 C   0  0  0  0  0  0  0  0  0  0  0  0
   -0.1870   -1.1782    0.7893 C   0  0  0  0  0  0  0  0  0  0  0  0
    1.0862   -0.8784    0.0648 C   0  0  0  0  0  0  0  0  0  0  0  0
    1.9606   -0.1703    0.8630 O   0  0  0  0  0  0  0  0  0  0  0  0
    1.6741    1.0861    0.3024 C   0  0  0  0  0  0  0  0  0  0  0  0
    0.8678    0.3872   -0.7346 C   0  0  0  0  0  0  0  0  0  0  0  0
   -0.5868    0.6232   -0.7857 C   0  0  0  0  0  0  0  0  0  0  0  0
   -1.4175    0.9919    0.3665 C   0  0  0  0  0  0  0  0  0  0  0  0
   -1.6994   -1.8172   -1.2063 H   0  0  0  0  0  0  0  0  0  0  0  0
   -0.2065   -0.8193    1.8380 H   0  0  0  0  0  0  0  0  0  0  0  0
   -0.3940   -2.2658    0.7993 H   0  0  0  0  0  0  0  0  0  0  0  0
    1.5028   -1.6574   -0.5791 H   0  0  0  0  0  0  0  0  0  0  0  0
    1.1745    1.7976    0.9600 H   0  0  0  0  0  0  0  0  0  0  0  0
    2.6466    1.5045   -0.0810 H   0  0  0  0  0  0  0  0  0  0  0  0
    1.3699    0.4057   -1.7126 H   0  0  0  0  0  0  0  0  0  0  0  0
   -1.0077    0.8291   -1.8031 H   0  0  0  0  0  0  0  0  0  0  0  0
   -0.9538    1.3890    1.3082 H   0  0  0  0  0  0  0  0  0  0  0  0
   -2.4234    1.3931    0.1675 H   0  0  0  0  0  0  0  0  0  0  0  0
  1  2  1  0
  2  3  1  0
  3  4  1  0
  4  5  1  0
  5  6  1  0
  6  7  1  0
  7  8  1  0
  8  9  1  0
  8  2  1  0
  9  2  1  0
  7  4  1  0
  1 10  1  0
  3 11  1  0
  3 12  1  0
  4 13  1  0
  6 14  1  0
  6 15  1  0
  7 16  1  0
  8 17  1  0
  9 18  1  0
  9 19  1  0
M  END
