
     RDKit          3D

 17 20  0  0  0  0  0  0  0  0999 V2000
    1.1278    1.6008   -1.1168 O   0  0  0  0  0  0  0  0  0  0  0  0
    0.5348    0.6099   -0.4532 C   0  0  0  0  0  0  0  0  0  0  0  0
    1.4030   -0.5787   -0.0076 C   0  0  0  0  0  0  0  0  0  0  0  0
    0.0366   -1.2762    0.0240 C   0  0  0  0  0  0  0  0  0  0  0  0
   -0.8108   -0.5766    1.0346 C   0  0  0  0  0  0  0  0  0  0  0  0
   -1.6784    0.3303    0.3111 C   0  0  0  0  0  0  0  0  0  0  0  0
   -1.5814   -0.0070   -1.0470 O   0  0  0  0  0  0  0  0  0  0  0  0
   -0.2848   -0.4113   -1.2055 C   0  0  0  0  0  0  0  0  0  0  0  0
   -0.4029    0.9019    0.6823 C   0  0  0  0  0  0  0  0  0  0  0  0
    1.3147    2.3630   -0.5244 H   0  0  0  0  0  0  0  0  0  0  0  0
    2.0953   -0.9479   -0.7494 H   0  0  0  0  0  0  0  0  0  0  0  0
    1.7800   -0.4039    1.0212 H   0  0  0  0  0  0  0  0  0  0  0  0
    0.0109   -2.3270   -0.0941 H   0  0  0  0  0  0  0  0  0  0  0  0
   -0.8465   -0.8411    2.0755 H   0  0  0  0  0  0  0  0  0  0  0  0
   -2.6018    0.7720    0.7000 H   0  0  0  0  0  0  0  0  0  0  0  0
    0.0708   -0.7652   -2.1455 H   0  0  0  0  0  0  0  0  0  0  0  0
   -0.1672    1.5571    1.4947 H   0  0  0  0  0  0  0  0  0  0  0  0
  1  2  1  0
  2  3  1  0
  3  4  1  0
  4  5  1  0
  5  6  1  0
  6  7  1  0
  7  8  1  0
  6  9  1  0
  8  2  1  0
  9  2  1  0
  8  4  1  0
  9  5  1  0
  1 10  1  0
  3 11  1  0
  3 12  1  0
  4 13  1  0
  5 14  1  0
  6 15  1  0
  8 16  1  0
  9 17  1  0
M  END
