
     RDKit          3D

 17 19  0  0  0  0  0  0  0  0999 V2000
   -0.8571   -1.1124   -1.3404 O   0  0  0  0  0  0  0  0  0  0  0  0
   -0.3543   -0.5767   -0.2611 C   0  0  0  0  0  0  0  0  0  0  0  0
   -0.3007    1.0116   -0.0977 C   0  0  0  0  0  0  0  0  0  0  0  0
    0.9911    1.2129   -0.0662 C   0  0  0  0  0  0  0  0  0  0  0  0
    1.9023   -0.0370   -0.1399 C   0  0  0  0  0  0  0  0  0  0  0  0
    1.4628   -0.8423    0.9658 O   0  0  0  0  0  0  0  0  0  0  0  0
    0.0905   -1.1458    0.8926 C   0  0  0  0  0  0  0  0  0  0  0  0
   -1.1091   -0.3165    1.0387 C   0  0  0  0  0  0  0  0  0  0  0  0
   -1.6858    0.6699   -0.1347 C   0  0  0  0  0  0  0  0  0  0  0  0
   -0.7280   -0.5665   -2.1610 H   0  0  0  0  0  0  0  0  0  0  0  0
    1.4072    2.1892    0.0061 H   0  0  0  0  0  0  0  0  0  0  0  0
    2.9075    0.2870    0.0774 H   0  0  0  0  0  0  0  0  0  0  0  0
    1.7574   -0.4763   -1.0997 H   0  0  0  0  0  0  0  0  0  0  0  0
   -0.0724   -2.2384    1.1298 H   0  0  0  0  0  0  0  0  0  0  0  0
   -0.8066    0.4779    1.7490 H   0  0  0  0  0  0  0  0  0  0  0  0
   -2.4224    1.3534    0.3420 H   0  0  0  0  0  0  0  0  0  0  0  0
   -2.1823    0.1099   -0.9005 H   0  0  0  0  0  0  0  0  0  0  0  0
  1  2  1  0
  2  3  1  0
  3  4  2  0
  4  5  1  0
  5  6  1  0
  6  7  1  0
  7  8  1  0
  8  9  1  0
  7  2  1  0
  8  2  1  0
  9  3  1  0
  1 10  1  0
  4 11  1  0
  5 12  1  0
  5 13  1  0
  7 14  1  0
  8 15  1  0
  9 16  1  0
  9 17  1  0
M  END
