
     RDKit          3D

 19 20  0  0  0  0  0  0  0  0999 V2000
   -0.8740   -2.4474   -0.7291 O   0  0  0  0  0  0  0  0  0  0  0  0
   -0.4124   -1.2072   -0.2215 C   0  0  0  0  0  0  0  0  0  0  0  0
    0.9804   -1.1666    0.1309 C   0  0  0  0  0  0  0  0  0  0  0  0
    1.8173   -0.1984    0.5482 C   0  0  0  0  0  0  0  0  0  0  0  0
    1.3881    1.1954    0.7455 C   0  0  0  0  0  0  0  0  0  0  0  0
    0.3875    1.8206    0.1475 C   0  0  0  0  0  0  0  0  0  0  0  0
   -0.5195    1.2527   -0.8525 C   0  0  0  0  0  0  0  0  0  0  0  0
   -1.1564   -0.0347   -0.5495 C   0  0  0  0  0  0  0  0  0  0  0  0
   -1.3223   -0.5525    0.8528 C   0  0  0  0  0  0  0  0  0  0  0  0
   -0.4374   -2.5280   -1.6158 H   0  0  0  0  0  0  0  0  0  0  0  0
    1.5180   -2.1034    0.0602 H   0  0  0  0  0  0  0  0  0  0  0  0
    2.8486   -0.4622    0.7481 H   0  0  0  0  0  0  0  0  0  0  0  0
    1.9910    1.7377    1.4757 H   0  0  0  0  0  0  0  0  0  0  0  0
    0.2532    2.8665    0.4553 H   0  0  0  0  0  0  0  0  0  0  0  0
    0.0098    1.1929   -1.8483 H   0  0  0  0  0  0  0  0  0  0  0  0
   -1.3276    2.0239   -1.0218 H   0  0  0  0  0  0  0  0  0  0  0  0
   -2.1064   -0.1968   -1.1513 H   0  0  0  0  0  0  0  0  0  0  0  0
   -0.8538   -0.0268    1.6897 H   0  0  0  0  0  0  0  0  0  0  0  0
   -2.1841   -1.1659    1.1357 H   0  0  0  0  0  0  0  0  0  0  0  0
  1  2  1  0
  2  3  1  0
  3  4  2  0
  4  5  1  0
  5  6  2  0
  6  7  1  0
  7  8  1  0
  8  9  1  0
  8  2  1  0
  9  2  1  0
  1 10  1  0
  3 11  1  0
  4 12  1  0
  5 13  1  0
  6 14  1  0
  7 15  1  0
  7 16  1  0
  8 17  1  0
  9 18  1  0
  9 19  1  0
M  END
