
     RDKit          3D

 19 21  0  0  0  0  0  0  0  0999 V2000
    1.5777    0.4013   -1.1246 O   0  0  0  0  0  0  0  0  0  0  0  0
    1.2762   -0.3325    0.0624 C   0  0  0  0  0  0  0  0  0  0  0  0
    0.8691    0.6471    1.0973 C   0  0  0  0  0  0  0  0  0  0  0  0
   -0.2888    1.3036    0.3138 C   0  0  0  0  0  0  0  0  0  0  0  0
   -0.7987    0.1659   -0.5164 C   0  0  0  0  0  0  0  0  0  0  0  0
   -2.3102    0.1029   -0.6232 C   0  0  0  0  0  0  0  0  0  0  0  0
   -1.4170    0.2851   -1.6901 O   0  0  0  0  0  0  0  0  0  0  0  0
   -0.1532   -1.0213    0.0529 C   0  0  0  0  0  0  0  0  0  0  0  0
    1.0661   -1.7010   -0.1357 C   0  0  0  0  0  0  0  0  0  0  0  0
    2.5650    0.4640   -1.1158 H   0  0  0  0  0  0  0  0  0  0  0  0
    0.4091    0.2059    1.9978 H   0  0  0  0  0  0  0  0  0  0  0  0
    1.6310    1.4083    1.3008 H   0  0  0  0  0  0  0  0  0  0  0  0
    0.1705    2.0564   -0.3796 H   0  0  0  0  0  0  0  0  0  0  0  0
   -1.0247    1.7383    0.9861 H   0  0  0  0  0  0  0  0  0  0  0  0
   -2.9120    0.9472   -0.2756 H   0  0  0  0  0  0  0  0  0  0  0  0
   -2.7933   -0.9014   -0.5451 H   0  0  0  0  0  0  0  0  0  0  0  0
   -0.6096   -1.1940    1.0824 H   0  0  0  0  0  0  0  0  0  0  0  0
    1.2812   -2.1634   -1.1376 H   0  0  0  0  0  0  0  0  0  0  0  0
    1.4616   -2.4125    0.6502 H   0  0  0  0  0  0  0  0  0  0  0  0
  1  2  1  0
  2  3  1  0
  3  4  1  0
  4  5  1  0
  5  6  1  0
  6  7  1  0
  5  8  1  0
  8  9  1  0
  8  2  1  0
  9  2  1  0
  7  5  1  0
  1 10  1  0
  3 11  1  0
  3 12  1  0
  4 13  1  0
  4 14  1  0
  6 15  1  0
  6 16  1  0
  8 17  1  0
  9 18  1  0
  9 19  1  0
M  END
