
     RDKit          3D

 17 19  0  0  0  0  0  0  0  0999 V2000
    0.9148    1.3274    1.5068 O   0  0  0  0  0  0  0  0  0  0  0  0
    0.3699    0.7349    0.3718 C   0  0  0  0  0  0  0  0  0  0  0  0
   -0.8421    1.3741   -0.1455 C   0  0  0  0  0  0  0  0  0  0  0  0
   -1.7420    0.4750   -0.4322 C   0  0  0  0  0  0  0  0  0  0  0  0
   -1.2476   -0.8760   -0.1438 C   0  0  0  0  0  0  0  0  0  0  0  0
    0.0846   -0.7381    0.4983 C   0  0  0  0  0  0  0  0  0  0  0  0
    1.2602   -0.9759   -0.4223 C   0  0  0  0  0  0  0  0  0  0  0  0
    2.4803   -0.3404   -0.1215 O   0  0  0  0  0  0  0  0  0  0  0  0
    1.4177    0.3537   -0.6732 C   0  0  0  0  0  0  0  0  0  0  0  0
    1.1027    0.5853    2.1532 H   0  0  0  0  0  0  0  0  0  0  0  0
   -0.9449    2.4471   -0.2617 H   0  0  0  0  0  0  0  0  0  0  0  0
   -2.7406    0.6573   -0.8339 H   0  0  0  0  0  0  0  0  0  0  0  0
   -1.2273   -1.5295   -1.0513 H   0  0  0  0  0  0  0  0  0  0  0  0
   -1.9304   -1.3379    0.6318 H   0  0  0  0  0  0  0  0  0  0  0  0
    0.1940   -1.1601    1.5146 H   0  0  0  0  0  0  0  0  0  0  0  0
    1.3582   -1.8977   -0.9862 H   0  0  0  0  0  0  0  0  0  0  0  0
    1.4924    0.9010   -1.6049 H   0  0  0  0  0  0  0  0  0  0  0  0
  1  2  1  0
  2  3  1  0
  3  4  2  0
  4  5  1  0
  5  6  1  0
  6  7  1  0
  7  8  1  0
  8  9  1  0
  6  2  1  0
  9  7  1  0
  9  2  1  0
  1 10  1  0
  3 11  1  0
  4 12  1  0
  5 13  1  0
  5 14  1  0
  6 15  1  0
  7 16  1  0
  9 17  1  0
M  END
