
     RDKit          3D

 21 22  0  0  0  0  0  0  0  0999 V2000
   -1.6506    1.8703   -0.4484 O   0  0  0  0  0  0  0  0  0  0  0  0
   -0.9131    0.7975   -0.0441 C   0  0  0  0  0  0  0  0  0  0  0  0
   -1.5945   -0.0566    0.9700 C   0  0  0  0  0  0  0  0  0  0  0  0
   -0.8643   -1.1683    0.9982 C   0  0  0  0  0  0  0  0  0  0  0  0
   -0.1477   -1.3774   -0.2901 C   0  0  0  0  0  0  0  0  0  0  0  0
    1.3274   -1.0744   -0.1738 C   0  0  0  0  0  0  0  0  0  0  0  0
    1.5679    0.4074   -0.1261 C   0  0  0  0  0  0  0  0  0  0  0  0
    0.4393    1.1614    0.5274 C   0  0  0  0  0  0  0  0  0  0  0  0
   -0.7069   -0.2352   -1.1519 C   0  0  0  0  0  0  0  0  0  0  0  0
   -1.0746    2.6832   -0.4550 H   0  0  0  0  0  0  0  0  0  0  0  0
   -2.4875    0.1670    1.5604 H   0  0  0  0  0  0  0  0  0  0  0  0
   -0.7854   -1.8606    1.8542 H   0  0  0  0  0  0  0  0  0  0  0  0
   -0.3694   -2.3557   -0.7072 H   0  0  0  0  0  0  0  0  0  0  0  0
    1.7873   -1.4367   -1.1394 H   0  0  0  0  0  0  0  0  0  0  0  0
    1.8292   -1.6290    0.6304 H   0  0  0  0  0  0  0  0  0  0  0  0
    2.4695    0.5673    0.5293 H   0  0  0  0  0  0  0  0  0  0  0  0
    1.7366    0.8599   -1.1245 H   0  0  0  0  0  0  0  0  0  0  0  0
    0.5895    2.2331    0.4110 H   0  0  0  0  0  0  0  0  0  0  0  0
    0.5024    0.9383    1.6222 H   0  0  0  0  0  0  0  0  0  0  0  0
    0.0160    0.0859   -1.9013 H   0  0  0  0  0  0  0  0  0  0  0  0
   -1.6711   -0.5775   -1.5412 H   0  0  0  0  0  0  0  0  0  0  0  0
  1  2  1  0
  2  3  1  0
  3  4  2  0
  4  5  1  0
  5  6  1  0
  6  7  1  0
  7  8  1  0
  5  9  1  0
  8  2  1  0
  9  2  1  0
  1 10  1  0
  3 11  1  0
  4 12  1  0
  5 13  1  0
  6 14  1  0
  6 15  1  0
  7 16  1  0
  7 17  1  0
  8 18  1  0
  8 19  1  0
  9 20  1  0
  9 21  1  0
M  END
