
     RDKit          3D

 16 17  0  0  0  0  0  0  0  0999 V2000
   -1.6451   -1.4795    0.4050 O   0  0  0  0  0  0  0  0  0  0  0  0
   -0.6575   -0.5997    0.3048 C   0  0  0  0  0  0  0  0  0  0  0  0
   -1.0016    0.8341    0.5755 C   0  0  0  0  0  0  0  0  0  0  0  0
   -0.0478    1.5863    0.0121 C   0  0  0  0  0  0  0  0  0  0  0  0
    0.9369    0.6269   -0.6126 C   0  0  0  0  0  0  0  0  0  0  0  0
    1.5462   -0.1167    0.5010 C   0  0  0  0  0  0  0  0  0  0  0  0
    0.5939   -0.8685    1.0485 C   0  0  0  0  0  0  0  0  0  0  0  0
   -0.0737   -0.4239   -1.1127 C   0  0  0  0  0  0  0  0  0  0  0  0
   -2.2326   -1.4671   -0.3696 H   0  0  0  0  0  0  0  0  0  0  0  0
   -1.8685    1.1481    1.1270 H   0  0  0  0  0  0  0  0  0  0  0  0
    0.0116    2.6537    0.0023 H   0  0  0  0  0  0  0  0  0  0  0  0
    1.5635    1.0348   -1.3596 H   0  0  0  0  0  0  0  0  0  0  0  0
    2.5665   -0.1019    0.8596 H   0  0  0  0  0  0  0  0  0  0  0  0
    0.6733   -1.5529    1.8727 H   0  0  0  0  0  0  0  0  0  0  0  0
    0.4200   -1.3212   -1.4654 H   0  0  0  0  0  0  0  0  0  0  0  0
   -0.7850    0.0473   -1.7885 H   0  0  0  0  0  0  0  0  0  0  0  0
  1  2  1  0
  2  3  1  0
  3  4  2  0
  4  5  1  0
  5  6  1  0
  6  7  2  0
  5  8  1  0
  7  2  1  0
  8  2  1  0
  1  9  1  0
  3 10  1  0
  4 11  1  0
  5 12  1  0
  6 13  1  0
  7 14  1  0
  8 15  1  0
  8 16  1  0
M  END
