
     RDKit          3D

 14 15  0  0  0  0  0  0  0  0999 V2000
    0.2502    1.9105    0.4553 O   0  0  0  0  0  0  0  0  0  0  0  0
    0.0478    0.7104    0.1638 C   0  0  0  0  0  0  0  0  0  0  0  0
    1.0604   -0.4089    0.1007 C   0  0  0  0  0  0  0  0  0  0  0  0
   -0.2456   -1.0736   -0.2441 C   0  0  0  0  0  0  0  0  0  0  0  0
   -0.5119    0.1345   -1.1033 C   0  0  0  0  0  0  0  0  0  0  0  0
   -0.8275   -0.2828    0.8868 C   0  0  0  0  0  0  0  0  0  0  0  0
    1.1619    2.2523    0.3356 H   0  0  0  0  0  0  0  0  0  0  0  0
    1.3973   -0.7433    1.1019 H   0  0  0  0  0  0  0  0  0  0  0  0
    1.8115   -0.3465   -0.6842 H   0  0  0  0  0  0  0  0  0  0  0  0
   -0.3989   -2.0317   -0.4768 H   0  0  0  0  0  0  0  0  0  0  0  0
   -1.5796    0.2805   -1.2731 H   0  0  0  0  0  0  0  0  0  0  0  0
    0.1640    0.2570   -1.9729 H   0  0  0  0  0  0  0  0  0  0  0  0
   -0.4342   -0.6135    1.8700 H   0  0  0  0  0  0  0  0  0  0  0  0
   -1.8954   -0.0450    0.8402 H   0  0  0  0  0  0  0  0  0  0  0  0
  1  2  1  0
  2  3  1  0
  3  4  1  0
  4  5  1  0
  4  6  1  0
  5  2  1  0
  6  2  1  0
  1  7  1  0
  3  8  1  0
  3  9  1  0
  4 10  1  0
  5 11  1  0
  5 12  1  0
  6 13  1  0
  6 14  1  0
M  END
