
     RDKit          3D

 17 20  0  0  0  0  0  0  0  0999 V2000
    1.9244    0.7708    1.2784 O   0  0  0  0  0  0  0  0  0  0  0  0
    0.8612    0.2065    0.7170 C   0  0  0  0  0  0  0  0  0  0  0  0
   -0.3059    0.9981    0.1094 C   0  0  0  0  0  0  0  0  0  0  0  0
   -1.6362    0.5097    0.6533 C   0  0  0  0  0  0  0  0  0  0  0  0
   -1.7031   -0.8324    0.4168 O   0  0  0  0  0  0  0  0  0  0  0  0
   -0.6964   -1.2351   -0.4118 C   0  0  0  0  0  0  0  0  0  0  0  0
   -0.1972    0.0607   -1.0693 C   0  0  0  0  0  0  0  0  0  0  0  0
    1.1394   -0.3048   -0.7242 C   0  0  0  0  0  0  0  0  0  0  0  0
    0.6748   -1.2043    0.3036 C   0  0  0  0  0  0  0  0  0  0  0  0
    2.5951    1.1397    0.6188 H   0  0  0  0  0  0  0  0  0  0  0  0
   -0.1657    2.0415   -0.0400 H   0  0  0  0  0  0  0  0  0  0  0  0
   -1.8357    0.8300    1.6744 H   0  0  0  0  0  0  0  0  0  0  0  0
   -2.4180    1.0005    0.0022 H   0  0  0  0  0  0  0  0  0  0  0  0
   -0.8438   -2.0709   -1.0775 H   0  0  0  0  0  0  0  0  0  0  0  0
   -0.5814    0.3275   -2.0061 H   0  0  0  0  0  0  0  0  0  0  0  0
    2.0793   -0.1667   -1.1688 H   0  0  0  0  0  0  0  0  0  0  0  0
    1.1092   -2.0707    0.7239 H   0  0  0  0  0  0  0  0  0  0  0  0
  1  2  1  0
  2  3  1  0
  3  4  1  0
  4  5  1  0
  5  6  1  0
  6  7  1  0
  7  8  1  0
  8  9  1  0
  8  2  1  0
  9  2  1  0
  7  3  1  0
  9  6  1  0
  1 10  1  0
  3 11  1  0
  4 12  1  0
  4 13  1  0
  6 14  1  0
  7 15  1  0
  8 16  1  0
  9 17  1  0
M  END
