
     RDKit          3D

 14 16  0  0  0  0  0  0  0  0999 V2000
   -0.3295    2.0050    0.7127 O   0  0  0  0  0  0  0  0  0  0  0  0
   -0.0757    0.8031    0.2060 C   0  0  0  0  0  0  0  0  0  0  0  0
    1.3118    0.4301   -0.1753 C   0  0  0  0  0  0  0  0  0  0  0  0
    1.1862   -0.8655   -0.5185 C   0  0  0  0  0  0  0  0  0  0  0  0
   -0.2457   -1.1213   -0.4251 C   0  0  0  0  0  0  0  0  0  0  0  0
   -0.9129    0.1690   -0.8192 C   0  0  0  0  0  0  0  0  0  0  0  0
   -1.8463   -0.1045    0.1696 O   0  0  0  0  0  0  0  0  0  0  0  0
   -0.6694   -0.4284    0.8223 C   0  0  0  0  0  0  0  0  0  0  0  0
   -0.2539    1.9749    1.7191 H   0  0  0  0  0  0  0  0  0  0  0  0
    2.2211    1.0237   -0.1871 H   0  0  0  0  0  0  0  0  0  0  0  0
    1.9643   -1.5630   -0.8002 H   0  0  0  0  0  0  0  0  0  0  0  0
   -0.6737   -2.0475   -0.7140 H   0  0  0  0  0  0  0  0  0  0  0  0
   -1.1130    0.4637   -1.7646 H   0  0  0  0  0  0  0  0  0  0  0  0
   -0.5634   -0.7394    1.7743 H   0  0  0  0  0  0  0  0  0  0  0  0
  1  2  1  0
  2  3  1  0
  3  4  2  0
  4  5  1  0
  5  6  1  0
  6  7  1  0
  7  8  1  0
  6  2  1  0
  8  2  1  0
  8  5  1  0
  1  9  1  0
  3 10  1  0
  4 11  1  0
  5 12  1  0
  6 13  1  0
  8 14  1  0
M  END
