
     RDKit          3D

 19 21  0  0  0  0  0  0  0  0999 V2000
   -0.7529    1.3868   -1.5876 O   0  0  0  0  0  0  0  0  0  0  0  0
   -0.5915    0.4241   -0.6689 C   0  0  0  0  0  0  0  0  0  0  0  0
   -1.1706    0.6886    0.7054 C   0  0  0  0  0  0  0  0  0  0  0  0
   -0.9013   -0.4788    1.3169 C   0  0  0  0  0  0  0  0  0  0  0  0
   -0.2094   -1.2283    0.2030 C   0  0  0  0  0  0  0  0  0  0  0  0
   -1.1966   -0.9379   -0.9394 C   0  0  0  0  0  0  0  0  0  0  0  0
    0.6619   -0.2136   -0.3786 C   0  0  0  0  0  0  0  0  0  0  0  0
    1.4923    0.9088   -0.0048 C   0  0  0  0  0  0  0  0  0  0  0  0
    1.8864   -0.3804    0.2957 C   0  0  0  0  0  0  0  0  0  0  0  0
   -1.3269    2.1198   -1.2533 H   0  0  0  0  0  0  0  0  0  0  0  0
   -1.6628    1.5776    1.0787 H   0  0  0  0  0  0  0  0  0  0  0  0
   -1.1164   -0.8004    2.3247 H   0  0  0  0  0  0  0  0  0  0  0  0
    0.0571   -2.2412    0.3719 H   0  0  0  0  0  0  0  0  0  0  0  0
   -2.2169   -1.0232   -0.5790 H   0  0  0  0  0  0  0  0  0  0  0  0
   -0.9298   -1.4046   -1.8933 H   0  0  0  0  0  0  0  0  0  0  0  0
    1.8991    1.4663   -0.8884 H   0  0  0  0  0  0  0  0  0  0  0  0
    1.2675    1.6397    0.8263 H   0  0  0  0  0  0  0  0  0  0  0  0
    2.0943   -0.6369    1.3798 H   0  0  0  0  0  0  0  0  0  0  0  0
    2.7167   -0.8664   -0.3091 H   0  0  0  0  0  0  0  0  0  0  0  0
  1  2  1  0
  2  3  1  0
  3  4  2  0
  4  5  1  0
  5  6  1  0
  5  7  1  0
  7  8  1  0
  8  9  1  0
  6  2  1  0
  9  7  1  0
  7  2  1  0
  1 10  1  0
  3 11  1  0
  4 12  1  0
  5 13  1  0
  6 14  1  0
  6 15  1  0
  8 16  1  0
  8 17  1  0
  9 18  1  0
  9 19  1  0
M  END
