
     RDKit          3D

 21 23  0  0  0  0  0  0  0  0999 V2000
    0.3571   -2.6419   -0.3859 O   0  0  0  0  0  0  0  0  0  0  0  0
    0.1938   -1.2759   -0.0530 C   0  0  0  0  0  0  0  0  0  0  0  0
    1.4068   -0.5139    0.3264 C   0  0  0  0  0  0  0  0  0  0  0  0
    1.5180    0.8570   -0.2239 C   0  0  0  0  0  0  0  0  0  0  0  0
    0.2810    1.6439   -0.3253 C   0  0  0  0  0  0  0  0  0  0  0  0
   -0.9759    0.8664   -0.5106 C   0  0  0  0  0  0  0  0  0  0  0  0
   -1.5291    0.4426    0.8530 C   0  0  0  0  0  0  0  0  0  0  0  0
   -1.1569   -0.9642    0.4858 C   0  0  0  0  0  0  0  0  0  0  0  0
   -0.7580   -0.5520   -0.9035 C   0  0  0  0  0  0  0  0  0  0  0  0
    0.4178   -3.1736    0.4694 H   0  0  0  0  0  0  0  0  0  0  0  0
    2.2955   -1.0864   -0.0779 H   0  0  0  0  0  0  0  0  0  0  0  0
    1.5824   -0.5182    1.4416 H   0  0  0  0  0  0  0  0  0  0  0  0
    2.0194    0.8543   -1.2356 H   0  0  0  0  0  0  0  0  0  0  0  0
    2.2455    1.4256    0.4277 H   0  0  0  0  0  0  0  0  0  0  0  0
    0.3518    2.3723   -1.1773 H   0  0  0  0  0  0  0  0  0  0  0  0
    0.1629    2.2758    0.5934 H   0  0  0  0  0  0  0  0  0  0  0  0
   -1.7513    1.3601   -1.1437 H   0  0  0  0  0  0  0  0  0  0  0  0
   -2.6113    0.5713    0.9704 H   0  0  0  0  0  0  0  0  0  0  0  0
   -0.9326    0.7821    1.7140 H   0  0  0  0  0  0  0  0  0  0  0  0
   -1.9310   -1.7241    0.5437 H   0  0  0  0  0  0  0  0  0  0  0  0
   -1.1861   -1.0013   -1.7888 H   0  0  0  0  0  0  0  0  0  0  0  0
  1  2  1  0
  2  3  1  0
  3  4  1  0
  4  5  1  0
  5  6  1  0
  6  7  1  0
  7  8  1  0
  8  9  1  0
  8  2  1  0
  9  2  1  0
  9  6  1  0
  1 10  1  0
  3 11  1  0
  3 12  1  0
  4 13  1  0
  4 14  1  0
  5 15  1  0
  5 16  1  0
  6 17  1  0
  7 18  1  0
  7 19  1  0
  8 20  1  0
  9 21  1  0
M  END
