
     RDKit          3D

 19 21  0  0  0  0  0  0  0  0999 V2000
   -1.1033    1.5821   -0.9364 O   0  0  0  0  0  0  0  0  0  0  0  0
   -0.9785    0.5107   -0.0258 C   0  0  0  0  0  0  0  0  0  0  0  0
   -2.0506   -0.4609    0.1334 C   0  0  0  0  0  0  0  0  0  0  0  0
   -0.8657   -0.8676   -0.7595 C   0  0  0  0  0  0  0  0  0  0  0  0
   -0.0112   -1.7246   -0.1589 O   0  0  0  0  0  0  0  0  0  0  0  0
    1.3439   -1.3143   -0.1259 C   0  0  0  0  0  0  0  0  0  0  0  0
    1.3362    0.1466   -0.2342 C   0  0  0  0  0  0  0  0  0  0  0  0
    1.4782    1.1993    0.6957 C   0  0  0  0  0  0  0  0  0  0  0  0
    0.2278    0.5504    0.8067 C   0  0  0  0  0  0  0  0  0  0  0  0
   -1.7162    2.2788   -0.5988 H   0  0  0  0  0  0  0  0  0  0  0  0
   -2.1547   -0.9408    1.1229 H   0  0  0  0  0  0  0  0  0  0  0  0
   -3.0273   -0.3025   -0.3634 H   0  0  0  0  0  0  0  0  0  0  0  0
   -1.1025   -0.8832   -1.8250 H   0  0  0  0  0  0  0  0  0  0  0  0
    1.6978   -1.6016    0.9051 H   0  0  0  0  0  0  0  0  0  0  0  0
    1.9530   -1.8560   -0.8538 H   0  0  0  0  0  0  0  0  0  0  0  0
    1.1494    0.4547   -1.3079 H   0  0  0  0  0  0  0  0  0  0  0  0
    2.2214    1.1081    1.5152 H   0  0  0  0  0  0  0  0  0  0  0  0
    1.4900    2.2626    0.3152 H   0  0  0  0  0  0  0  0  0  0  0  0
    0.1122   -0.1418    1.6956 H   0  0  0  0  0  0  0  0  0  0  0  0
  1  2  1  0
  2  3  1  0
  3  4  1  0
  4  5  1  0
  5  6  1  0
  6  7  1  0
  7  8  1  0
  8  9  1  0
  4  2  1  0
  9  7  1  0
  9  2  1  0
  1 10  1  0
  3 11  1  0
  3 12  1  0
  4 13  1  0
  6 14  1  0
  6 15  1  0
  7 16  1  0
  8 17  1  0
  8 18  1  0
  9 19  1  0
M  END
