
     RDKit          3D

 21 23  0  0  0  0  0  0  0  0999 V2000
   -1.2944   -2.1192    0.2112 O   0  0  0  0  0  0  0  0  0  0  0  0
   -0.6535   -0.9132    0.0644 C   0  0  0  0  0  0  0  0  0  0  0  0
   -1.4071    0.2007    0.8132 C   0  0  0  0  0  0  0  0  0  0  0  0
   -0.8828    1.1038   -0.3136 C   0  0  0  0  0  0  0  0  0  0  0  0
    0.5095    1.5252    0.0059 C   0  0  0  0  0  0  0  0  0  0  0  0
    1.4090    0.4138    0.4524 C   0  0  0  0  0  0  0  0  0  0  0  0
    1.8660   -0.6260   -0.5452 C   0  0  0  0  0  0  0  0  0  0  0  0
    0.8014   -0.9103    0.4222 C   0  0  0  0  0  0  0  0  0  0  0  0
   -0.9670   -0.1296   -1.1741 C   0  0  0  0  0  0  0  0  0  0  0  0
   -1.2049   -2.4010    1.1648 H   0  0  0  0  0  0  0  0  0  0  0  0
   -2.4978    0.0217    0.7095 H   0  0  0  0  0  0  0  0  0  0  0  0
   -1.0236    0.4296    1.8017 H   0  0  0  0  0  0  0  0  0  0  0  0
   -1.5202    1.9388   -0.5726 H   0  0  0  0  0  0  0  0  0  0  0  0
    0.9276    2.1101   -0.8266 H   0  0  0  0  0  0  0  0  0  0  0  0
    0.4441    2.2467    0.8725 H   0  0  0  0  0  0  0  0  0  0  0  0
    2.2197    0.7016    1.1739 H   0  0  0  0  0  0  0  0  0  0  0  0
    2.8669   -1.1043   -0.4089 H   0  0  0  0  0  0  0  0  0  0  0  0
    1.6858   -0.3330   -1.5930 H   0  0  0  0  0  0  0  0  0  0  0  0
    1.0602   -1.6463    1.2232 H   0  0  0  0  0  0  0  0  0  0  0  0
   -0.3054   -0.2069   -2.0187 H   0  0  0  0  0  0  0  0  0  0  0  0
   -2.0336   -0.3023   -1.4620 H   0  0  0  0  0  0  0  0  0  0  0  0
  1  2  1  0
  2  3  1  0
  3  4  1  0
  4  5  1  0
  5  6  1  0
  6  7  1  0
  7  8  1  0
  4  9  1  0
  8  2  1  0
  9  2  1  0
  8  6  1  0
  1 10  1  0
  3 11  1  0
  3 12  1  0
  4 13  1  0
  5 14  1  0
  5 15  1  0
  6 16  1  0
  7 17  1  0
  7 18  1  0
  8 19  1  0
  9 20  1  0
  9 21  1  0
M  END
