
     RDKit          3D

 19 21  0  0  0  0  0  0  0  0999 V2000
    1.2042    1.1574    1.3693 O   0  0  0  0  0  0  0  0  0  0  0  0
    0.8441    0.3313    0.5063 C   0  0  0  0  0  0  0  0  0  0  0  0
    1.6910   -0.6574   -0.2553 C   0  0  0  0  0  0  0  0  0  0  0  0
    0.2974   -0.8953   -0.7787 C   0  0  0  0  0  0  0  0  0  0  0  0
   -0.1433   -0.8007    0.6528 C   0  0  0  0  0  0  0  0  0  0  0  0
   -1.5672   -0.3897    0.8225 C   0  0  0  0  0  0  0  0  0  0  0  0
   -1.6945    0.9827    0.5064 O   0  0  0  0  0  0  0  0  0  0  0  0
   -1.2068    1.1115   -0.7949 C   0  0  0  0  0  0  0  0  0  0  0  0
    0.1867    0.5992   -0.8252 C   0  0  0  0  0  0  0  0  0  0  0  0
    2.1040    1.0985    1.7690 H   0  0  0  0  0  0  0  0  0  0  0  0
    2.3069   -0.1426   -1.0134 H   0  0  0  0  0  0  0  0  0  0  0  0
    2.1473   -1.4601    0.3146 H   0  0  0  0  0  0  0  0  0  0  0  0
    0.0148   -1.5582   -1.4688 H   0  0  0  0  0  0  0  0  0  0  0  0
    0.1885   -1.6277    1.3161 H   0  0  0  0  0  0  0  0  0  0  0  0
   -1.8941   -0.5386    1.8485 H   0  0  0  0  0  0  0  0  0  0  0  0
   -2.2595   -0.9397    0.1454 H   0  0  0  0  0  0  0  0  0  0  0  0
   -1.2219    2.1392   -1.1698 H   0  0  0  0  0  0  0  0  0  0  0  0
   -1.9005    0.5106   -1.4375 H   0  0  0  0  0  0  0  0  0  0  0  0
    0.9029    1.0797   -1.5073 H   0  0  0  0  0  0  0  0  0  0  0  0
  1  2  1  0
  2  3  1  0
  3  4  1  0
  4  5  1  0
  5  6  1  0
  6  7  1  0
  7  8  1  0
  8  9  1  0
  5  2  1  0
  9  2  1  0
  9  4  1  0
  1 10  1  0
  3 11  1  0
  3 12  1  0
  4 13  1  0
  5 14  1  0
  6 15  1  0
  6 16  1  0
  8 17  1  0
  8 18  1  0
  9 19  1  0
M  END
