
     RDKit          3D

 19 21  0  0  0  0  0  0  0  0999 V2000
   -0.2988    2.2425    0.0770 O   0  0  0  0  0  0  0  0  0  0  0  0
   -0.0044    0.9473   -0.2645 C   0  0  0  0  0  0  0  0  0  0  0  0
    1.2961    0.7842   -0.9501 C   0  0  0  0  0  0  0  0  0  0  0  0
    1.7697   -0.3871   -0.5901 C   0  0  0  0  0  0  0  0  0  0  0  0
    0.9299   -1.1306    0.3064 C   0  0  0  0  0  0  0  0  0  0  0  0
   -0.2934   -1.0002    1.1185 C   0  0  0  0  0  0  0  0  0  0  0  0
   -1.6330   -0.7086    0.3805 C   0  0  0  0  0  0  0  0  0  0  0  0
   -1.1562    0.1841   -0.7773 C   0  0  0  0  0  0  0  0  0  0  0  0
    0.4242    0.1151    0.9514 C   0  0  0  0  0  0  0  0  0  0  0  0
    0.3497    2.6778    0.6572 H   0  0  0  0  0  0  0  0  0  0  0  0
    1.7361    1.5072   -1.6089 H   0  0  0  0  0  0  0  0  0  0  0  0
    2.7517   -0.8176   -0.9214 H   0  0  0  0  0  0  0  0  0  0  0  0
    0.5849   -1.9468   -0.3059 H   0  0  0  0  0  0  0  0  0  0  0  0
   -0.3605   -1.6301    1.9981 H   0  0  0  0  0  0  0  0  0  0  0  0
   -1.9150   -1.6715   -0.0818 H   0  0  0  0  0  0  0  0  0  0  0  0
   -2.3514   -0.2388    1.0307 H   0  0  0  0  0  0  0  0  0  0  0  0
   -1.9998    0.8920   -0.9684 H   0  0  0  0  0  0  0  0  0  0  0  0
   -0.9852   -0.3772   -1.6905 H   0  0  0  0  0  0  0  0  0  0  0  0
    1.1554    0.5584    1.6390 H   0  0  0  0  0  0  0  0  0  0  0  0
  1  2  1  0
  2  3  1  0
  3  4  2  0
  4  5  1  0
  5  6  1  0
  6  7  1  0
  7  8  1  0
  6  9  1  0
  8  2  1  0
  9  2  1  0
  9  5  1  0
  1 10  1  0
  3 11  1  0
  4 12  1  0
  5 13  1  0
  6 14  1  0
  7 15  1  0
  7 16  1  0
  8 17  1  0
  8 18  1  0
  9 19  1  0
M  END
