
     RDKit          3D

 19 20  0  0  0  0  0  0  0  0999 V2000
   -0.0551   -1.8021   -1.1335 O   0  0  0  0  0  0  0  0  0  0  0  0
   -0.1172   -0.7664   -0.1774 C   0  0  0  0  0  0  0  0  0  0  0  0
   -1.5479   -0.5974    0.2771 C   0  0  0  0  0  0  0  0  0  0  0  0
   -1.7313    0.8863    0.3632 C   0  0  0  0  0  0  0  0  0  0  0  0
   -0.7174    1.5134   -0.2181 C   0  0  0  0  0  0  0  0  0  0  0  0
    0.2721    0.5448   -0.7665 C   0  0  0  0  0  0  0  0  0  0  0  0
    1.6079    0.8337   -0.1266 C   0  0  0  0  0  0  0  0  0  0  0  0
    1.6055    0.1667    1.0778 O   0  0  0  0  0  0  0  0  0  0  0  0
    0.8456   -0.9750    0.9447 C   0  0  0  0  0  0  0  0  0  0  0  0
    0.7858   -1.7053   -1.6391 H   0  0  0  0  0  0  0  0  0  0  0  0
   -1.6922   -1.0677    1.2802 H   0  0  0  0  0  0  0  0  0  0  0  0
   -2.2837   -1.0142   -0.4249 H   0  0  0  0  0  0  0  0  0  0  0  0
   -2.5730    1.3827    0.8335 H   0  0  0  0  0  0  0  0  0  0  0  0
   -0.6459    2.6113   -0.2717 H   0  0  0  0  0  0  0  0  0  0  0  0
    0.3142    0.5564   -1.8700 H   0  0  0  0  0  0  0  0  0  0  0  0
    2.4598    0.5617   -0.7853 H   0  0  0  0  0  0  0  0  0  0  0  0
    1.6360    1.9250    0.0829 H   0  0  0  0  0  0  0  0  0  0  0  0
    1.5116   -1.8285    0.6549 H   0  0  0  0  0  0  0  0  0  0  0  0
    0.3249   -1.2253    1.8987 H   0  0  0  0  0  0  0  0  0  0  0  0
  1  2  1  0
  2  3  1  0
  3  4  1  0
  4  5  2  0
  5  6  1  0
  6  7  1  0
  7  8  1  0
  8  9  1  0
  6  2  1  0
  9  2  1  0
  1 10  1  0
  3 11  1  0
  3 12  1  0
  4 13  1  0
  5 14  1  0
  6 15  1  0
  7 16  1  0
  7 17  1  0
  9 18  1  0
  9 19  1  0
M  END
