
     RDKit          3D

 21 23  0  0  0  0  0  0  0  0999 V2000
   -0.9062   -0.9787    1.4252 O   0  0  0  0  0  0  0  0  0  0  0  0
   -1.2835    0.1878    0.6990 C   0  0  0  0  0  0  0  0  0  0  0  0
   -2.4309    0.0483   -0.0835 C   0  0  0  0  0  0  0  0  0  0  0  0
   -1.2748    0.0171   -0.8784 C   0  0  0  0  0  0  0  0  0  0  0  0
   -0.0238   -0.7740   -0.8685 C   0  0  0  0  0  0  0  0  0  0  0  0
    0.8665    0.1500   -0.0175 C   0  0  0  0  0  0  0  0  0  0  0  0
    2.1845    0.5469   -0.4178 C   0  0  0  0  0  0  0  0  0  0  0  0
    1.9699   -0.4660    0.7140 C   0  0  0  0  0  0  0  0  0  0  0  0
   -0.1177    1.1047    0.6849 C   0  0  0  0  0  0  0  0  0  0  0  0
   -1.6421   -1.6100    1.5015 H   0  0  0  0  0  0  0  0  0  0  0  0
   -3.0515   -0.8926   -0.0168 H   0  0  0  0  0  0  0  0  0  0  0  0
   -3.1432    0.9161   -0.1577 H   0  0  0  0  0  0  0  0  0  0  0  0
   -1.0781    0.9692   -1.4660 H   0  0  0  0  0  0  0  0  0  0  0  0
   -0.0834   -1.7519   -0.3816 H   0  0  0  0  0  0  0  0  0  0  0  0
    0.3781   -0.8614   -1.8947 H   0  0  0  0  0  0  0  0  0  0  0  0
    2.5939    1.5004   -0.0660 H   0  0  0  0  0  0  0  0  0  0  0  0
    2.6541    0.1772   -1.3448 H   0  0  0  0  0  0  0  0  0  0  0  0
    2.2668   -1.5185    0.5103 H   0  0  0  0  0  0  0  0  0  0  0  0
    2.1351   -0.1397    1.7498 H   0  0  0  0  0  0  0  0  0  0  0  0
   -0.2634    1.9422   -0.0518 H   0  0  0  0  0  0  0  0  0  0  0  0
    0.2496    1.4331    1.6532 H   0  0  0  0  0  0  0  0  0  0  0  0
  1  2  1  0
  2  3  1  0
  3  4  1  0
  4  5  1  0
  5  6  1  0
  6  7  1  0
  7  8  1  0
  6  9  1  0
  4  2  1  0
  8  6  1  0
  9  2  1  0
  1 10  1  0
  3 11  1  0
  3 12  1  0
  4 13  1  0
  5 14  1  0
  5 15  1  0
  7 16  1  0
  7 17  1  0
  8 18  1  0
  8 19  1  0
  9 20  1  0
  9 21  1  0
M  END
