
     RDKit          3D

 17 19  0  0  0  0  0  0  0  0999 V2000
   -1.0445   -1.2379    1.6005 O   0  0  0  0  0  0  0  0  0  0  0  0
   -0.4190   -0.5481    0.6137 C   0  0  0  0  0  0  0  0  0  0  0  0
   -0.0453    0.8807    0.7025 C   0  0  0  0  0  0  0  0  0  0  0  0
   -0.7971    1.4723   -0.4441 C   0  0  0  0  0  0  0  0  0  0  0  0
   -1.2016    0.5243   -1.2705 C   0  0  0  0  0  0  0  0  0  0  0  0
   -0.7868   -0.8033   -0.8001 C   0  0  0  0  0  0  0  0  0  0  0  0
    0.5522   -1.1392   -0.3317 C   0  0  0  0  0  0  0  0  0  0  0  0
    1.6909   -0.2250   -0.2272 C   0  0  0  0  0  0  0  0  0  0  0  0
    1.3963    0.9140    0.3466 C   0  0  0  0  0  0  0  0  0  0  0  0
   -0.4550   -1.8422    2.1347 H   0  0  0  0  0  0  0  0  0  0  0  0
   -0.2840    1.3782    1.6437 H   0  0  0  0  0  0  0  0  0  0  0  0
   -0.9645    2.5331   -0.5457 H   0  0  0  0  0  0  0  0  0  0  0  0
   -1.7647    0.7308   -2.1707 H   0  0  0  0  0  0  0  0  0  0  0  0
   -1.4519   -1.6735   -1.0265 H   0  0  0  0  0  0  0  0  0  0  0  0
    0.7751   -2.2189   -0.1499 H   0  0  0  0  0  0  0  0  0  0  0  0
    2.6971   -0.4815   -0.5999 H   0  0  0  0  0  0  0  0  0  0  0  0
    2.1028    1.7363    0.5247 H   0  0  0  0  0  0  0  0  0  0  0  0
  1  2  1  0
  2  3  1  0
  3  4  1  0
  4  5  2  0
  5  6  1  0
  6  7  1  0
  7  8  1  0
  8  9  2  0
  6  2  1  0
  7  2  1  0
  9  3  1  0
  1 10  1  0
  3 11  1  0
  4 12  1  0
  5 13  1  0
  6 14  1  0
  7 15  1  0
  8 16  1  0
  9 17  1  0
M  END
