
     RDKit          2D

 19 21  0  0  0  0  0  0  0  0999 V2000
    1.8758   -0.0518    0.0000 O   0  0  0  0  0  0  0  0  0  0  0  0
    0.3943   -0.2865    0.0000 C   0  0  0  0  0  0  0  0  0  0  0  0
    0.8578   -1.7131    0.0000 C   0  0  0  0  0  0  0  0  0  0  0  0
   -0.5688   -2.1766    0.0000 C   0  0  0  0  0  0  0  0  0  0  0  0
   -1.0323   -0.7500    0.0000 C   0  0  0  0  0  0  0  0  0  0  0  0
   -1.0323    0.7500    0.0000 C   0  0  0  0  0  0  0  0  0  0  0  0
    0.3943    1.2135    0.0000 C   0  0  0  0  0  0  0  0  0  0  0  0
    1.2760    0.0000    0.0000 C   0  0  0  0  0  0  0  0  0  0  0  0
    0.3943   -1.2135    0.0000 O   0  0  0  0  0  0  0  0  0  0  0  0
    2.5801    1.2726    0.0000 H   0  0  0  0  0  0  0  0  0  0  0  0
    1.3213   -3.1396    0.0000 H   0  0  0  0  0  0  0  0  0  0  0  0
    2.3303   -1.4269    0.0000 H   0  0  0  0  0  0  0  0  0  0  0  0
   -1.9953   -2.6401    0.0000 H   0  0  0  0  0  0  0  0  0  0  0  0
   -0.1052   -3.6032    0.0000 H   0  0  0  0  0  0  0  0  0  0  0  0
   -2.5241    0.5932    0.0000 H   0  0  0  0  0  0  0  0  0  0  0  0
   -1.3442    2.2172    0.0000 H   0  0  0  0  0  0  0  0  0  0  0  0
    0.8578    2.6401    0.0000 H   0  0  0  0  0  0  0  0  0  0  0  0
    2.2600    1.1321    0.0000 H   0  0  0  0  0  0  0  0  0  0  0  0
    2.5047   -0.8603    0.0000 H   0  0  0  0  0  0  0  0  0  0  0  0
  1  2  1  0
  2  3  1  0
  3  4  1  0
  4  5  1  0
  5  6  1  0
  6  7  1  0
  7  8  1  0
  8  9  1  0
  5  2  1  0
  7  2  1  0
  9  5  1  0
  1 10  1  0
  3 11  1  0
  3 12  1  0
  4 13  1  0
  4 14  1  0
  6 15  1  0
  6 16  1  0
  7 17  1  0
  8 18  1  0
  8 19  1  0
M  END
