
     RDKit          3D

 18 19  0  0  0  0  0  0  0  0999 V2000
   -2.0068    0.7928   -1.2867 O   0  0  0  0  0  0  0  0  0  0  0  0
   -1.0624    0.3856   -0.3395 C   0  0  0  0  0  0  0  0  0  0  0  0
   -0.1166    1.4341    0.0970 C   0  0  0  0  0  0  0  0  0  0  0  0
    1.1841    1.2189    0.2499 C   0  0  0  0  0  0  0  0  0  0  0  0
    1.7811   -0.1104   -0.0120 C   0  0  0  0  0  0  0  0  0  0  0  0
    0.8072   -1.2222    0.1611 C   0  0  0  0  0  0  0  0  0  0  0  0
   -0.5493   -0.9721   -0.3875 C   0  0  0  0  0  0  0  0  0  0  0  0
   -1.5978   -0.5791    0.6752 C   0  0  0  0  0  0  0  0  0  0  0  0
   -1.7548    1.6267   -1.7333 H   0  0  0  0  0  0  0  0  0  0  0  0
   -0.5428    2.4251    0.2953 H   0  0  0  0  0  0  0  0  0  0  0  0
    1.7746    2.0752    0.5768 H   0  0  0  0  0  0  0  0  0  0  0  0
    2.5993   -0.2400    0.7517 H   0  0  0  0  0  0  0  0  0  0  0  0
    2.3174   -0.1529   -0.9955 H   0  0  0  0  0  0  0  0  0  0  0  0
    1.2277   -2.1228   -0.3765 H   0  0  0  0  0  0  0  0  0  0  0  0
    0.7476   -1.4601    1.2586 H   0  0  0  0  0  0  0  0  0  0  0  0
   -0.9462   -1.6271   -1.2168 H   0  0  0  0  0  0  0  0  0  0  0  0
   -2.6126   -1.0118    0.5666 H   0  0  0  0  0  0  0  0  0  0  0  0
   -1.2499   -0.4602    1.7155 H   0  0  0  0  0  0  0  0  0  0  0  0
  1  2  1  0
  2  3  1  0
  3  4  2  0
  4  5  1  0
  5  6  1  0
  6  7  1  0
  7  8  1  0
  7  2  1  0
  8  2  1  0
  1  9  1  0
  3 10  1  0
  4 11  1  0
  5 12  1  0
  5 13  1  0
  6 14  1  0
  6 15  1  0
  7 16  1  0
  8 17  1  0
  8 18  1  0
M  END
