
     RDKit          3D

 19 21  0  0  0  0  0  0  0  0999 V2000
   -1.7736   -1.4956    0.6635 O   0  0  0  0  0  0  0  0  0  0  0  0
   -0.8466   -0.6854    0.0772 C   0  0  0  0  0  0  0  0  0  0  0  0
    0.2648   -1.3350   -0.6895 C   0  0  0  0  0  0  0  0  0  0  0  0
    1.4981   -0.5381   -0.3360 C   0  0  0  0  0  0  0  0  0  0  0  0
    0.9758    0.7847    0.1992 C   0  0  0  0  0  0  0  0  0  0  0  0
    1.9087    1.6815    0.6461 O   0  0  0  0  0  0  0  0  0  0  0  0
   -0.3324    1.3131   -0.2115 C   0  0  0  0  0  0  0  0  0  0  0  0
   -1.4179    0.4534   -0.7804 C   0  0  0  0  0  0  0  0  0  0  0  0
   -0.2179    0.3820    0.9213 C   0  0  0  0  0  0  0  0  0  0  0  0
   -1.5202   -1.7567    1.6015 H   0  0  0  0  0  0  0  0  0  0  0  0
    0.3704   -2.4068   -0.5252 H   0  0  0  0  0  0  0  0  0  0  0  0
    0.1282   -1.2040   -1.8036 H   0  0  0  0  0  0  0  0  0  0  0  0
    1.9698   -1.0483    0.5548 H   0  0  0  0  0  0  0  0  0  0  0  0
    2.2002   -0.4244   -1.1582 H   0  0  0  0  0  0  0  0  0  0  0  0
    1.5585    2.3785    1.2322 H   0  0  0  0  0  0  0  0  0  0  0  0
   -0.5332    2.3635   -0.0405 H   0  0  0  0  0  0  0  0  0  0  0  0
   -2.4451    0.6579   -0.4362 H   0  0  0  0  0  0  0  0  0  0  0  0
   -1.3079    0.3025   -1.8510 H   0  0  0  0  0  0  0  0  0  0  0  0
   -0.4797    0.5772    1.9362 H   0  0  0  0  0  0  0  0  0  0  0  0
  1  2  1  0
  2  3  1  0
  3  4  1  0
  4  5  1  0
  5  6  1  0
  5  7  1  0
  7  8  1  0
  7  9  1  0
  8  2  1  0
  9  2  1  0
  9  5  1  0
  1 10  1  0
  3 11  1  0
  3 12  1  0
  4 13  1  0
  4 14  1  0
  6 15  1  0
  7 16  1  0
  8 17  1  0
  8 18  1  0
  9 19  1  0
M  END
