
     RDKit          3D

 15 18  0  0  0  0  0  0  0  0999 V2000
   -1.3126    1.6402    0.6158 O   0  0  0  0  0  0  0  0  0  0  0  0
   -0.3705    0.7919    0.1734 C   0  0  0  0  0  0  0  0  0  0  0  0
    0.8129    0.3433    0.9395 C   0  0  0  0  0  0  0  0  0  0  0  0
    1.7354   -0.1772   -0.0590 C   0  0  0  0  0  0  0  0  0  0  0  0
    1.3759    0.4608   -1.2547 O   0  0  0  0  0  0  0  0  0  0  0  0
   -0.0094    0.5562   -1.2357 C   0  0  0  0  0  0  0  0  0  0  0  0
   -0.5538   -0.5270   -0.3960 C   0  0  0  0  0  0  0  0  0  0  0  0
   -1.7041   -1.1842   -0.6054 O   0  0  0  0  0  0  0  0  0  0  0  0
    0.6245   -1.0519    0.3214 C   0  0  0  0  0  0  0  0  0  0  0  0
   -2.2501    1.3960    0.3582 H   0  0  0  0  0  0  0  0  0  0  0  0
    0.9609    0.4495    1.9936 H   0  0  0  0  0  0  0  0  0  0  0  0
    2.7856   -0.3968    0.0867 H   0  0  0  0  0  0  0  0  0  0  0  0
   -0.5064    1.0040   -2.0815 H   0  0  0  0  0  0  0  0  0  0  0  0
   -2.2498   -1.3775    0.2132 H   0  0  0  0  0  0  0  0  0  0  0  0
    0.6615   -1.9273    0.9307 H   0  0  0  0  0  0  0  0  0  0  0  0
  1  2  1  0
  2  3  1  0
  3  4  1  0
  4  5  1  0
  5  6  1  0
  6  7  1  0
  7  8  1  0
  7  9  1  0
  6  2  1  0
  7  2  1  0
  9  3  1  0
  9  4  1  0
  1 10  1  0
  3 11  1  0
  4 12  1  0
  6 13  1  0
  8 14  1  0
  9 15  1  0
M  END
