
     RDKit          3D

 16 18  0  0  0  0  0  0  0  0999 V2000
   -1.6816    1.5073   -0.1083 O   0  0  0  0  0  0  0  0  0  0  0  0
   -0.7708    0.5194    0.2533 C   0  0  0  0  0  0  0  0  0  0  0  0
   -1.2441   -0.8182    0.5956 C   0  0  0  0  0  0  0  0  0  0  0  0
   -0.6321   -0.6975   -0.7313 C   0  0  0  0  0  0  0  0  0  0  0  0
    0.8775   -0.6475   -0.8585 C   0  0  0  0  0  0  0  0  0  0  0  0
    1.4344   -0.3414    0.4785 C   0  0  0  0  0  0  0  0  0  0  0  0
    0.6664    0.9183    0.2103 C   0  0  0  0  0  0  0  0  0  0  0  0
    1.0474    0.7307   -1.1429 O   0  0  0  0  0  0  0  0  0  0  0  0
   -1.3516    2.3979    0.1442 H   0  0  0  0  0  0  0  0  0  0  0  0
   -0.7811   -1.5033    1.3022 H   0  0  0  0  0  0  0  0  0  0  0  0
   -2.3687   -0.9288    0.5816 H   0  0  0  0  0  0  0  0  0  0  0  0
   -1.2251   -0.5539   -1.6519 H   0  0  0  0  0  0  0  0  0  0  0  0
    1.3562   -1.3382   -1.5168 H   0  0  0  0  0  0  0  0  0  0  0  0
    1.1735   -0.9393    1.3343 H   0  0  0  0  0  0  0  0  0  0  0  0
    2.5169   -0.1395    0.4380 H   0  0  0  0  0  0  0  0  0  0  0  0
    0.9829    1.8340    0.6718 H   0  0  0  0  0  0  0  0  0  0  0  0
  1  2  1  0
  2  3  1  0
  3  4  1  0
  4  5  1  0
  5  6  1  0
  6  7  1  0
  7  8  1  0
  4  2  1  0
  8  5  1  0
  7  2  1  0
  1  9  1  0
  3 10  1  0
  3 11  1  0
  4 12  1  0
  5 13  1  0
  6 14  1  0
  6 15  1  0
  7 16  1  0
M  END
