
     RDKit          3D

 12 13  0  0  0  0  0  0  0  0999 V2000
   -0.0194    1.5879    0.8144 O   0  0  0  0  0  0  0  0  0  0  0  0
   -0.0036    0.2683    0.4606 C   0  0  0  0  0  0  0  0  0  0  0  0
   -1.2395   -0.5686    0.4336 C   0  0  0  0  0  0  0  0  0  0  0  0
   -1.0468   -0.7185   -0.9570 O   0  0  0  0  0  0  0  0  0  0  0  0
    0.1831   -0.1069   -0.9742 C   0  0  0  0  0  0  0  0  0  0  0  0
    1.2473   -0.4178    0.0044 C   0  0  0  0  0  0  0  0  0  0  0  0
    0.1721    2.2208    0.0665 H   0  0  0  0  0  0  0  0  0  0  0  0
   -2.1541   -0.0619    0.7291 H   0  0  0  0  0  0  0  0  0  0  0  0
   -1.0498   -1.5644    0.8995 H   0  0  0  0  0  0  0  0  0  0  0  0
    0.4019    0.6437   -1.7463 H   0  0  0  0  0  0  0  0  0  0  0  0
    2.1343    0.2161   -0.0143 H   0  0  0  0  0  0  0  0  0  0  0  0
    1.3745   -1.4988    0.2838 H   0  0  0  0  0  0  0  0  0  0  0  0
  1  2  1  0
  2  3  1  0
  3  4  1  0
  4  5  1  0
  5  6  1  0
  5  2  1  0
  6  2  1  0
  1  7  1  0
  3  8  1  0
  3  9  1  0
  5 10  1  0
  6 11  1  0
  6 12  1  0
M  END
