
     RDKit          3D

 17 19  0  0  0  0  0  0  0  0999 V2000
    1.1102   -1.6808    0.5486 O   0  0  0  0  0  0  0  0  0  0  0  0
    0.6727   -0.4881    0.1989 C   0  0  0  0  0  0  0  0  0  0  0  0
    1.6126    0.5750   -0.2457 C   0  0  0  0  0  0  0  0  0  0  0  0
    0.7907    1.5992   -0.5125 C   0  0  0  0  0  0  0  0  0  0  0  0
   -0.5384    1.0585   -0.1770 C   0  0  0  0  0  0  0  0  0  0  0  0
   -0.4974   -0.3436   -0.7503 C   0  0  0  0  0  0  0  0  0  0  0  0
   -1.5949   -1.0073    0.0140 C   0  0  0  0  0  0  0  0  0  0  0  0
   -1.3566   -0.4816    1.3109 O   0  0  0  0  0  0  0  0  0  0  0  0
   -0.2401    0.2941    1.1237 C   0  0  0  0  0  0  0  0  0  0  0  0
    1.9839   -1.8900    0.1255 H   0  0  0  0  0  0  0  0  0  0  0  0
    2.6882    0.4926   -0.3186 H   0  0  0  0  0  0  0  0  0  0  0  0
    1.0809    2.5749   -0.8850 H   0  0  0  0  0  0  0  0  0  0  0  0
   -1.4129    1.6334   -0.2325 H   0  0  0  0  0  0  0  0  0  0  0  0
   -0.3630   -0.4874   -1.7845 H   0  0  0  0  0  0  0  0  0  0  0  0
   -2.5603   -0.5964   -0.3440 H   0  0  0  0  0  0  0  0  0  0  0  0
   -1.5668   -2.1003    0.0073 H   0  0  0  0  0  0  0  0  0  0  0  0
    0.1911    0.8477    1.9215 H   0  0  0  0  0  0  0  0  0  0  0  0
  1  2  1  0
  2  3  1  0
  3  4  2  0
  4  5  1  0
  5  6  1  0
  6  7  1  0
  7  8  1  0
  8  9  1  0
  6  2  1  0
  9  2  1  0
  9  5  1  0
  1 10  1  0
  3 11  1  0
  4 12  1  0
  5 13  1  0
  6 14  1  0
  7 15  1  0
  7 16  1  0
  9 17  1  0
M  END
