
     RDKit          3D

 17 19  0  0  0  0  0  0  0  0999 V2000
   -1.2589   -1.9106   -0.3016 O   0  0  0  0  0  0  0  0  0  0  0  0
   -1.0728   -0.5667   -0.4496 C   0  0  0  0  0  0  0  0  0  0  0  0
   -2.1375    0.4395   -0.1900 C   0  0  0  0  0  0  0  0  0  0  0  0
   -1.2134    0.2052    0.9018 C   0  0  0  0  0  0  0  0  0  0  0  0
    0.2403    0.3343    0.8369 C   0  0  0  0  0  0  0  0  0  0  0  0
    1.5231    0.5298    1.0706 C   0  0  0  0  0  0  0  0  0  0  0  0
    2.3446    0.2587   -0.1551 C   0  0  0  0  0  0  0  0  0  0  0  0
    1.4097   -0.6130   -0.8468 O   0  0  0  0  0  0  0  0  0  0  0  0
    0.2440    0.0597   -0.6762 C   0  0  0  0  0  0  0  0  0  0  0  0
   -0.9567   -2.4645   -1.0378 H   0  0  0  0  0  0  0  0  0  0  0  0
   -3.1580    0.0247   -0.1538 H   0  0  0  0  0  0  0  0  0  0  0  0
   -2.0668    1.4012   -0.7784 H   0  0  0  0  0  0  0  0  0  0  0  0
   -1.6590   -0.3760    1.7625 H   0  0  0  0  0  0  0  0  0  0  0  0
    1.9172    0.8463    2.0325 H   0  0  0  0  0  0  0  0  0  0  0  0
    2.4668    1.1427   -0.7933 H   0  0  0  0  0  0  0  0  0  0  0  0
    3.2376   -0.3293    0.0171 H   0  0  0  0  0  0  0  0  0  0  0  0
    0.1398    1.0181   -1.2389 H   0  0  0  0  0  0  0  0  0  0  0  0
  1  2  1  0
  2  3  1  0
  3  4  1  0
  4  5  1  0
  5  6  2  0
  6  7  1  0
  7  8  1  0
  8  9  1  0
  4  2  1  0
  9  5  1  0
  9  2  1  0
  1 10  1  0
  3 11  1  0
  3 12  1  0
  4 13  1  0
  6 14  1  0
  7 15  1  0
  7 16  1  0
  9 17  1  0
M  END
