
     RDKit          3D

 19 21  0  0  0  0  0  0  0  0999 V2000
    0.8374   -1.6173   -1.4591 O   0  0  0  0  0  0  0  0  0  0  0  0
    0.5390   -0.7604   -0.4119 C   0  0  0  0  0  0  0  0  0  0  0  0
    1.3681   -0.7969    0.8354 C   0  0  0  0  0  0  0  0  0  0  0  0
    1.4576    0.3343   -0.0864 C   0  0  0  0  0  0  0  0  0  0  0  0
    0.6103    1.5487   -0.0046 C   0  0  0  0  0  0  0  0  0  0  0  0
   -0.8328    1.1285   -0.1807 C   0  0  0  0  0  0  0  0  0  0  0  0
   -1.3977    0.3390    0.9449 C   0  0  0  0  0  0  0  0  0  0  0  0
   -0.8707   -0.3305   -0.2427 C   0  0  0  0  0  0  0  0  0  0  0  0
   -1.7977   -1.0161   -1.0348 O   0  0  0  0  0  0  0  0  0  0  0  0
    0.0040   -1.8664   -1.9531 H   0  0  0  0  0  0  0  0  0  0  0  0
    0.8568   -0.7512    1.8208 H   0  0  0  0  0  0  0  0  0  0  0  0
    2.1846   -1.5364    0.8159 H   0  0  0  0  0  0  0  0  0  0  0  0
    2.4289    0.4809   -0.6154 H   0  0  0  0  0  0  0  0  0  0  0  0
    0.6999    2.0408    0.9579 H   0  0  0  0  0  0  0  0  0  0  0  0
    0.8405    2.2211   -0.8699 H   0  0  0  0  0  0  0  0  0  0  0  0
   -1.4725    1.6802   -0.8903 H   0  0  0  0  0  0  0  0  0  0  0  0
   -2.4846    0.3730    1.0822 H   0  0  0  0  0  0  0  0  0  0  0  0
   -0.8467    0.3658    1.9235 H   0  0  0  0  0  0  0  0  0  0  0  0
   -2.1245   -1.8371   -0.6319 H   0  0  0  0  0  0  0  0  0  0  0  0
  1  2  1  0
  2  3  1  0
  3  4  1  0
  4  5  1  0
  5  6  1  0
  6  7  1  0
  7  8  1  0
  8  9  1  0
  4  2  1  0
  8  6  1  0
  8  2  1  0
  1 10  1  0
  3 11  1  0
  3 12  1  0
  4 13  1  0
  5 14  1  0
  5 15  1  0
  6 16  1  0
  7 17  1  0
  7 18  1  0
  9 19  1  0
M  END
