
     RDKit          3D

 19 21  0  0  0  0  0  0  0  0999 V2000
    1.5765    1.1865   -1.5362 O   0  0  0  0  0  0  0  0  0  0  0  0
    0.8413    0.2336   -0.8077 C   0  0  0  0  0  0  0  0  0  0  0  0
    1.5506   -0.8486   -0.1475 C   0  0  0  0  0  0  0  0  0  0  0  0
    1.0307    0.3553    0.6775 C   0  0  0  0  0  0  0  0  0  0  0  0
   -0.2017    0.0636    1.4721 C   0  0  0  0  0  0  0  0  0  0  0  0
   -1.4216    0.2961    0.6145 C   0  0  0  0  0  0  0  0  0  0  0  0
   -1.4149   -0.8067   -0.4446 C   0  0  0  0  0  0  0  0  0  0  0  0
   -0.6099    0.2178   -1.1486 C   0  0  0  0  0  0  0  0  0  0  0  0
   -1.2273    1.2248   -0.3815 O   0  0  0  0  0  0  0  0  0  0  0  0
    1.3326    2.1090   -1.2116 H   0  0  0  0  0  0  0  0  0  0  0  0
    1.1098   -1.8220    0.0737 H   0  0  0  0  0  0  0  0  0  0  0  0
    2.6591   -0.8966   -0.2931 H   0  0  0  0  0  0  0  0  0  0  0  0
    1.7949    1.0547    1.0752 H   0  0  0  0  0  0  0  0  0  0  0  0
   -0.2063   -1.0402    1.7146 H   0  0  0  0  0  0  0  0  0  0  0  0
   -0.2307    0.5777    2.4367 H   0  0  0  0  0  0  0  0  0  0  0  0
   -2.3706    0.4126    1.1551 H   0  0  0  0  0  0  0  0  0  0  0  0
   -2.4254   -0.8988   -0.8888 H   0  0  0  0  0  0  0  0  0  0  0  0
   -0.9184   -1.7349   -0.1474 H   0  0  0  0  0  0  0  0  0  0  0  0
   -0.8686    0.3164   -2.2124 H   0  0  0  0  0  0  0  0  0  0  0  0
  1  2  1  0
  2  3  1  0
  3  4  1  0
  4  5  1  0
  5  6  1  0
  6  7  1  0
  7  8  1  0
  8  9  1  0
  4  2  1  0
  9  6  1  0
  8  2  1  0
  1 10  1  0
  3 11  1  0
  3 12  1  0
  4 13  1  0
  5 14  1  0
  5 15  1  0
  6 16  1  0
  7 17  1  0
  7 18  1  0
  8 19  1  0
M  END
