
     RDKit          3D

 13 15  0  0  0  0  0  0  0  0999 V2000
    0.3080    1.6522   -0.8718 O   0  0  0  0  0  0  0  0  0  0  0  0
    0.2963    0.6648    0.0770 C   0  0  0  0  0  0  0  0  0  0  0  0
    1.4331   -0.1897    0.4029 C   0  0  0  0  0  0  0  0  0  0  0  0
    0.4154   -0.7744   -0.5257 C   0  0  0  0  0  0  0  0  0  0  0  0
   -0.9953   -0.9786   -0.1133 C   0  0  0  0  0  0  0  0  0  0  0  0
   -1.9642    0.0221   -0.4170 O   0  0  0  0  0  0  0  0  0  0  0  0
   -1.0590    0.1813    0.6041 C   0  0  0  0  0  0  0  0  0  0  0  0
   -0.1854    2.4715   -0.6113 H   0  0  0  0  0  0  0  0  0  0  0  0
    1.4600   -0.5407    1.4741 H   0  0  0  0  0  0  0  0  0  0  0  0
    2.4347   -0.0795   -0.0188 H   0  0  0  0  0  0  0  0  0  0  0  0
    0.6570   -0.8494   -1.5821 H   0  0  0  0  0  0  0  0  0  0  0  0
   -1.4576   -1.9610   -0.0469 H   0  0  0  0  0  0  0  0  0  0  0  0
   -1.3431    0.3812    1.6290 H   0  0  0  0  0  0  0  0  0  0  0  0
  1  2  1  0
  2  3  1  0
  3  4  1  0
  4  5  1  0
  5  6  1  0
  6  7  1  0
  4  2  1  0
  7  5  1  0
  7  2  1  0
  1  8  1  0
  3  9  1  0
  3 10  1  0
  4 11  1  0
  5 12  1  0
  7 13  1  0
M  END
