
     RDKit          3D

 17 19  0  0  0  0  0  0  0  0999 V2000
    0.0645    2.0414   -0.3526 O   0  0  0  0  0  0  0  0  0  0  0  0
    0.2984    0.7698   -0.0375 C   0  0  0  0  0  0  0  0  0  0  0  0
    1.7043    0.2757    0.1602 C   0  0  0  0  0  0  0  0  0  0  0  0
    1.7266   -1.0738   -0.2220 O   0  0  0  0  0  0  0  0  0  0  0  0
    0.3958   -1.4589   -0.1864 C   0  0  0  0  0  0  0  0  0  0  0  0
   -0.0498   -1.1704    1.1288 O   0  0  0  0  0  0  0  0  0  0  0  0
   -0.5931    0.0861    0.9901 C   0  0  0  0  0  0  0  0  0  0  0  0
   -1.5586   -0.1521   -0.1829 C   0  0  0  0  0  0  0  0  0  0  0  0
   -0.2665   -0.3259   -0.9310 C   0  0  0  0  0  0  0  0  0  0  0  0
   -0.8407    2.3131   -0.1362 H   0  0  0  0  0  0  0  0  0  0  0  0
    1.8960    0.2718    1.2691 H   0  0  0  0  0  0  0  0  0  0  0  0
    2.4708    0.8632   -0.3372 H   0  0  0  0  0  0  0  0  0  0  0  0
    0.1718   -2.4463   -0.5238 H   0  0  0  0  0  0  0  0  0  0  0  0
   -0.9458    0.6384    1.8144 H   0  0  0  0  0  0  0  0  0  0  0  0
   -2.1652    0.7215   -0.4239 H   0  0  0  0  0  0  0  0  0  0  0  0
   -2.1010   -1.1136   -0.0595 H   0  0  0  0  0  0  0  0  0  0  0  0
   -0.2075   -0.2401   -1.9696 H   0  0  0  0  0  0  0  0  0  0  0  0
  1  2  1  0
  2  3  1  0
  3  4  1  0
  4  5  1  0
  5  6  1  0
  6  7  1  0
  7  8  1  0
  8  9  1  0
  7  2  1  0
  9  2  1  0
  9  5  1  0
  1 10  1  0
  3 11  1  0
  3 12  1  0
  5 13  1  0
  7 14  1  0
  8 15  1  0
  8 16  1  0
  9 17  1  0
M  END
