
     RDKit          3D

 19 20  0  0  0  0  0  0  0  0999 V2000
    1.8308    1.4950    0.5841 O   0  0  0  0  0  0  0  0  0  0  0  0
    0.9217    0.5309    0.2898 C   0  0  0  0  0  0  0  0  0  0  0  0
    1.4123   -0.8822    0.1550 C   0  0  0  0  0  0  0  0  0  0  0  0
    0.6128   -1.5078   -0.8194 O   0  0  0  0  0  0  0  0  0  0  0  0
   -0.7223   -1.4200   -0.3805 C   0  0  0  0  0  0  0  0  0  0  0  0
   -1.0557    0.0059   -0.0088 C   0  0  0  0  0  0  0  0  0  0  0  0
   -2.3686    0.3725   -0.0844 O   0  0  0  0  0  0  0  0  0  0  0  0
   -0.0845    0.8809   -0.8159 C   0  0  0  0  0  0  0  0  0  0  0  0
   -0.3099    0.4757    1.2078 C   0  0  0  0  0  0  0  0  0  0  0  0
    1.9204    2.1077   -0.1754 H   0  0  0  0  0  0  0  0  0  0  0  0
    2.4767   -0.9652   -0.0683 H   0  0  0  0  0  0  0  0  0  0  0  0
    1.2294   -1.4527    1.1038 H   0  0  0  0  0  0  0  0  0  0  0  0
   -1.3548   -1.6604   -1.2765 H   0  0  0  0  0  0  0  0  0  0  0  0
   -0.9508   -2.1352    0.4106 H   0  0  0  0  0  0  0  0  0  0  0  0
   -2.6288    0.4692   -1.0346 H   0  0  0  0  0  0  0  0  0  0  0  0
    0.1643    0.4661   -1.8019 H   0  0  0  0  0  0  0  0  0  0  0  0
   -0.3260    1.9562   -0.7673 H   0  0  0  0  0  0  0  0  0  0  0  0
   -0.6185    1.4983    1.4719 H   0  0  0  0  0  0  0  0  0  0  0  0
   -0.1482   -0.2349    2.0100 H   0  0  0  0  0  0  0  0  0  0  0  0
  1  2  1  0
  2  3  1  0
  3  4  1  0
  4  5  1  0
  5  6  1  0
  6  7  1  0
  6  8  1  0
  6  9  1  0
  8  2  1  0
  9  2  1  0
  1 10  1  0
  3 11  1  0
  3 12  1  0
  5 13  1  0
  5 14  1  0
  7 15  1  0
  8 16  1  0
  8 17  1  0
  9 18  1  0
  9 19  1  0
M  END
