
     RDKit          3D

 15 16  0  0  0  0  0  0  0  0999 V2000
    0.9472    0.4779    1.5426 O   0  0  0  0  0  0  0  0  0  0  0  0
    0.6224    0.2473    0.1838 C   0  0  0  0  0  0  0  0  0  0  0  0
   -0.6617    0.9375   -0.2838 C   0  0  0  0  0  0  0  0  0  0  0  0
   -1.5696   -0.2971   -0.2799 C   0  0  0  0  0  0  0  0  0  0  0  0
   -0.7415   -1.1565    0.4807 O   0  0  0  0  0  0  0  0  0  0  0  0
    0.4769   -1.1649   -0.1515 C   0  0  0  0  0  0  0  0  0  0  0  0
    1.5088   -0.3054   -0.6728 C   0  0  0  0  0  0  0  0  0  0  0  0
    0.6245    1.3486    1.8434 H   0  0  0  0  0  0  0  0  0  0  0  0
   -0.9898    1.6644    0.4856 H   0  0  0  0  0  0  0  0  0  0  0  0
   -0.5334    1.3558   -1.2815 H   0  0  0  0  0  0  0  0  0  0  0  0
   -1.6463   -0.6279   -1.3260 H   0  0  0  0  0  0  0  0  0  0  0  0
   -2.5128   -0.1237    0.2299 H   0  0  0  0  0  0  0  0  0  0  0  0
    0.3234   -1.8628   -0.9376 H   0  0  0  0  0  0  0  0  0  0  0  0
    2.5626   -0.5775   -0.3467 H   0  0  0  0  0  0  0  0  0  0  0  0
    1.5893    0.0843   -1.7359 H   0  0  0  0  0  0  0  0  0  0  0  0
  1  2  1  0
  2  3  1  0
  3  4  1  0
  4  5  1  0
  5  6  1  0
  6  7  1  0
  6  2  1  0
  7  2  1  0
  1  8  1  0
  3  9  1  0
  3 10  1  0
  4 11  1  0
  4 12  1  0
  6 13  1  0
  7 14  1  0
  7 15  1  0
M  END
