
     RDKit          3D

 16 18  0  0  0  0  0  0  0  0999 V2000
   -1.8780   -1.3647    0.2744 O   0  0  0  0  0  0  0  0  0  0  0  0
   -0.7996   -0.5346    0.1047 C   0  0  0  0  0  0  0  0  0  0  0  0
    0.5836   -1.1863    0.1710 C   0  0  0  0  0  0  0  0  0  0  0  0
    1.4834    0.0085    0.0079 C   0  0  0  0  0  0  0  0  0  0  0  0
    0.6687    1.1225   -0.6020 C   0  0  0  0  0  0  0  0  0  0  0  0
    0.0154    1.8224    0.4104 O   0  0  0  0  0  0  0  0  0  0  0  0
   -0.9329    0.8533    0.5616 C   0  0  0  0  0  0  0  0  0  0  0  0
   -0.6484    0.4677   -0.9153 C   0  0  0  0  0  0  0  0  0  0  0  0
   -2.0116   -1.4734    1.2648 H   0  0  0  0  0  0  0  0  0  0  0  0
    0.7610   -1.8482   -0.7021 H   0  0  0  0  0  0  0  0  0  0  0  0
    0.7215   -1.7416    1.0911 H   0  0  0  0  0  0  0  0  0  0  0  0
    1.8090    0.3004    1.0442 H   0  0  0  0  0  0  0  0  0  0  0  0
    2.3993   -0.2231   -0.5488 H   0  0  0  0  0  0  0  0  0  0  0  0
    1.1385    1.7116   -1.3822 H   0  0  0  0  0  0  0  0  0  0  0  0
   -1.9385    1.2041    0.8096 H   0  0  0  0  0  0  0  0  0  0  0  0
   -1.3715    0.8814   -1.5891 H   0  0  0  0  0  0  0  0  0  0  0  0
  1  2  1  0
  2  3  1  0
  3  4  1  0
  4  5  1  0
  5  6  1  0
  6  7  1  0
  7  8  1  0
  7  2  1  0
  8  2  1  0
  8  5  1  0
  1  9  1  0
  3 10  1  0
  3 11  1  0
  4 12  1  0
  4 13  1  0
  5 14  1  0
  7 15  1  0
  8 16  1  0
M  END
