
     RDKit          3D

 21 23  0  0  0  0  0  0  0  0999 V2000
   -0.8604    1.4891   -1.3693 O   0  0  0  0  0  0  0  0  0  0  0  0
   -1.2440    0.6668   -0.3539 C   0  0  0  0  0  0  0  0  0  0  0  0
   -2.3071   -0.3994   -0.5785 C   0  0  0  0  0  0  0  0  0  0  0  0
   -1.1806   -1.3888   -0.5842 C   0  0  0  0  0  0  0  0  0  0  0  0
   -0.2338   -0.3950    0.0211 C   0  0  0  0  0  0  0  0  0  0  0  0
    1.1481   -0.3735   -0.5116 C   0  0  0  0  0  0  0  0  0  0  0  0
    2.1009    0.7311   -0.2985 C   0  0  0  0  0  0  0  0  0  0  0  0
    2.2331   -0.4356    0.5912 C   0  0  0  0  0  0  0  0  0  0  0  0
   -0.6341    0.6352    0.9786 C   0  0  0  0  0  0  0  0  0  0  0  0
   -0.7772    2.4358   -1.1169 H   0  0  0  0  0  0  0  0  0  0  0  0
   -2.9344   -0.4927    0.3412 H   0  0  0  0  0  0  0  0  0  0  0  0
   -2.8888   -0.2972   -1.5003 H   0  0  0  0  0  0  0  0  0  0  0  0
   -1.3210   -2.3136   -0.0134 H   0  0  0  0  0  0  0  0  0  0  0  0
   -0.8798   -1.5960   -1.6369 H   0  0  0  0  0  0  0  0  0  0  0  0
    1.3646   -1.0583   -1.3790 H   0  0  0  0  0  0  0  0  0  0  0  0
    2.9248    0.8475   -1.0489 H   0  0  0  0  0  0  0  0  0  0  0  0
    1.7650    1.6944    0.1017 H   0  0  0  0  0  0  0  0  0  0  0  0
    1.9135   -0.3107    1.6336 H   0  0  0  0  0  0  0  0  0  0  0  0
    3.0309   -1.2016    0.4610 H   0  0  0  0  0  0  0  0  0  0  0  0
   -1.3125    0.3579    1.8222 H   0  0  0  0  0  0  0  0  0  0  0  0
    0.0926    1.4046    1.2297 H   0  0  0  0  0  0  0  0  0  0  0  0
  1  2  1  0
  2  3  1  0
  3  4  1  0
  4  5  1  0
  5  6  1  0
  6  7  1  0
  7  8  1  0
  5  9  1  0
  5  2  1  0
  8  6  1  0
  9  2  1  0
  1 10  1  0
  3 11  1  0
  3 12  1  0
  4 13  1  0
  4 14  1  0
  6 15  1  0
  7 16  1  0
  7 17  1  0
  8 18  1  0
  8 19  1  0
  9 20  1  0
  9 21  1  0
M  END
