
     RDKit          3D

 19 21  0  0  0  0  0  0  0  0999 V2000
   -1.1708    1.6532   -0.9537 O   0  0  0  0  0  0  0  0  0  0  0  0
   -1.0230    0.2853   -0.7820 C   0  0  0  0  0  0  0  0  0  0  0  0
   -2.1553   -0.5349   -0.3688 C   0  0  0  0  0  0  0  0  0  0  0  0
   -1.0558   -0.3106    0.6003 C   0  0  0  0  0  0  0  0  0  0  0  0
    0.1966   -1.0821    0.3120 C   0  0  0  0  0  0  0  0  0  0  0  0
    1.3479   -0.8555    1.1828 C   0  0  0  0  0  0  0  0  0  0  0  0
    1.9969    0.2215    0.7660 C   0  0  0  0  0  0  0  0  0  0  0  0
    1.3569    0.8267   -0.4170 C   0  0  0  0  0  0  0  0  0  0  0  0
    0.3767   -0.2132   -0.9088 C   0  0  0  0  0  0  0  0  0  0  0  0
   -1.4789    2.1289   -0.1593 H   0  0  0  0  0  0  0  0  0  0  0  0
   -2.2259   -1.5983   -0.7380 H   0  0  0  0  0  0  0  0  0  0  0  0
   -3.0988   -0.0355   -0.1529 H   0  0  0  0  0  0  0  0  0  0  0  0
   -1.1567    0.3175    1.4814 H   0  0  0  0  0  0  0  0  0  0  0  0
   -0.0317   -2.1460    0.0584 H   0  0  0  0  0  0  0  0  0  0  0  0
    1.6415   -1.4509    2.0293 H   0  0  0  0  0  0  0  0  0  0  0  0
    2.9083    0.6490    1.2180 H   0  0  0  0  0  0  0  0  0  0  0  0
    0.8530    1.7674   -0.1131 H   0  0  0  0  0  0  0  0  0  0  0  0
    2.0713    1.1034   -1.2166 H   0  0  0  0  0  0  0  0  0  0  0  0
    0.6479   -0.7257   -1.8378 H   0  0  0  0  0  0  0  0  0  0  0  0
  1  2  1  0
  2  3  1  0
  3  4  1  0
  4  5  1  0
  5  6  1  0
  6  7  2  0
  7  8  1  0
  8  9  1  0
  4  2  1  0
  9  5  1  0
  9  2  1  0
  1 10  1  0
  3 11  1  0
  3 12  1  0
  4 13  1  0
  5 14  1  0
  6 15  1  0
  7 16  1  0
  8 17  1  0
  8 18  1  0
  9 19  1  0
M  END
