
     RDKit          3D

 19 20  0  0  0  0  0  0  0  0999 V2000
   -2.1745   -0.8370    0.6492 O   0  0  0  0  0  0  0  0  0  0  0  0
   -0.9608   -0.4396    0.1827 C   0  0  0  0  0  0  0  0  0  0  0  0
   -1.0051    0.2887   -1.1131 C   0  0  0  0  0  0  0  0  0  0  0  0
    0.0038    1.1489   -1.1666 C   0  0  0  0  0  0  0  0  0  0  0  0
    0.7933    1.0539    0.0781 C   0  0  0  0  0  0  0  0  0  0  0  0
    1.7721   -0.0778   -0.0817 C   0  0  0  0  0  0  0  0  0  0  0  0
    1.2257   -1.2677   -0.4202 O   0  0  0  0  0  0  0  0  0  0  0  0
   -0.0012   -1.5770    0.0567 C   0  0  0  0  0  0  0  0  0  0  0  0
   -0.2884    0.6133    1.0744 C   0  0  0  0  0  0  0  0  0  0  0  0
   -2.8221   -0.0893    0.6700 H   0  0  0  0  0  0  0  0  0  0  0  0
   -1.7583    0.1174   -1.8708 H   0  0  0  0  0  0  0  0  0  0  0  0
    0.2331    1.8226   -1.9796 H   0  0  0  0  0  0  0  0  0  0  0  0
    1.2955    1.9632    0.3784 H   0  0  0  0  0  0  0  0  0  0  0  0
    2.4173   -0.0932    0.8305 H   0  0  0  0  0  0  0  0  0  0  0  0
    2.4696    0.2327   -0.9153 H   0  0  0  0  0  0  0  0  0  0  0  0
   -0.4745   -2.3263   -0.6447 H   0  0  0  0  0  0  0  0  0  0  0  0
    0.0143   -2.1137    1.0464 H   0  0  0  0  0  0  0  0  0  0  0  0
   -0.9660    1.4303    1.3111 H   0  0  0  0  0  0  0  0  0  0  0  0
    0.2264    0.1506    1.9145 H   0  0  0  0  0  0  0  0  0  0  0  0
  1  2  1  0
  2  3  1  0
  3  4  2  0
  4  5  1  0
  5  6  1  0
  6  7  1  0
  7  8  1  0
  5  9  1  0
  8  2  1  0
  9  2  1  0
  1 10  1  0
  3 11  1  0
  4 12  1  0
  5 13  1  0
  6 14  1  0
  6 15  1  0
  8 16  1  0
  8 17  1  0
  9 18  1  0
  9 19  1  0
M  END
