
     RDKit          3D

 17 20  0  0  0  0  0  0  0  0999 V2000
    2.1052   -1.0453   -0.4039 O   0  0  0  0  0  0  0  0  0  0  0  0
    0.9121   -0.4476   -0.0866 C   0  0  0  0  0  0  0  0  0  0  0  0
    1.0560    1.0524    0.2026 C   0  0  0  0  0  0  0  0  0  0  0  0
   -0.4772    1.0608    0.0255 C   0  0  0  0  0  0  0  0  0  0  0  0
   -1.0844    0.2888    1.1194 C   0  0  0  0  0  0  0  0  0  0  0  0
   -2.2183   -0.3514    1.2865 O   0  0  0  0  0  0  0  0  0  0  0  0
   -1.6824   -0.8237    0.2000 C   0  0  0  0  0  0  0  0  0  0  0  0
   -0.3261   -1.1787   -0.3013 C   0  0  0  0  0  0  0  0  0  0  0  0
   -0.0578    0.0468   -1.0591 C   0  0  0  0  0  0  0  0  0  0  0  0
    2.6906   -0.9735    0.4164 H   0  0  0  0  0  0  0  0  0  0  0  0
    1.3400    1.2994    1.2262 H   0  0  0  0  0  0  0  0  0  0  0  0
    1.5730    1.5734   -0.6135 H   0  0  0  0  0  0  0  0  0  0  0  0
   -0.9016    1.9748   -0.3278 H   0  0  0  0  0  0  0  0  0  0  0  0
   -0.3651   -0.1444    1.8920 H   0  0  0  0  0  0  0  0  0  0  0  0
   -2.3260   -0.4612   -0.6678 H   0  0  0  0  0  0  0  0  0  0  0  0
   -0.2507   -2.1217   -0.8384 H   0  0  0  0  0  0  0  0  0  0  0  0
    0.0126    0.2512   -2.0701 H   0  0  0  0  0  0  0  0  0  0  0  0
  1  2  1  0
  2  3  1  0
  3  4  1  0
  4  5  1  0
  5  6  1  0
  6  7  1  0
  7  8  1  0
  8  9  1  0
  8  2  1  0
  9  2  1  0
  9  4  1  0
  7  5  1  0
  1 10  1  0
  3 11  1  0
  3 12  1  0
  4 13  1  0
  5 14  1  0
  7 15  1  0
  8 16  1  0
  9 17  1  0
M  END
