
     RDKit          3D

 19 21  0  0  0  0  0  0  0  0999 V2000
    0.7900    0.1063    1.9602 O   0  0  0  0  0  0  0  0  0  0  0  0
    0.6535    0.1709    0.6598 C   0  0  0  0  0  0  0  0  0  0  0  0
    1.8219   -0.0363   -0.2744 C   0  0  0  0  0  0  0  0  0  0  0  0
    0.7100   -0.3273   -1.2749 C   0  0  0  0  0  0  0  0  0  0  0  0
    0.1155    0.9108   -1.3773 O   0  0  0  0  0  0  0  0  0  0  0  0
   -0.1321    1.2479   -0.0236 C   0  0  0  0  0  0  0  0  0  0  0  0
   -1.5526    0.7767    0.2442 C   0  0  0  0  0  0  0  0  0  0  0  0
   -1.4512   -0.6965   -0.1489 C   0  0  0  0  0  0  0  0  0  0  0  0
    0.0012   -1.0015   -0.0955 C   0  0  0  0  0  0  0  0  0  0  0  0
    0.7407   -0.7621    2.4071 H   0  0  0  0  0  0  0  0  0  0  0  0
    2.2809    0.9511   -0.5072 H   0  0  0  0  0  0  0  0  0  0  0  0
    2.4910   -0.8594   -0.0499 H   0  0  0  0  0  0  0  0  0  0  0  0
    0.9300   -0.9123   -2.1263 H   0  0  0  0  0  0  0  0  0  0  0  0
    0.0811    2.2565    0.2346 H   0  0  0  0  0  0  0  0  0  0  0  0
   -1.7270    0.8800    1.3254 H   0  0  0  0  0  0  0  0  0  0  0  0
   -2.2301    1.3393   -0.3966 H   0  0  0  0  0  0  0  0  0  0  0  0
   -1.8039   -0.7272   -1.2216 H   0  0  0  0  0  0  0  0  0  0  0  0
   -2.0609   -1.3363    0.4925 H   0  0  0  0  0  0  0  0  0  0  0  0
    0.3418   -1.9805    0.1723 H   0  0  0  0  0  0  0  0  0  0  0  0
  1  2  1  0
  2  3  1  0
  3  4  1  0
  4  5  1  0
  5  6  1  0
  6  7  1  0
  7  8  1  0
  8  9  1  0
  6  2  1  0
  9  2  1  0
  9  4  1  0
  1 10  1  0
  3 11  1  0
  3 12  1  0
  4 13  1  0
  6 14  1  0
  7 15  1  0
  7 16  1  0
  8 17  1  0
  8 18  1  0
  9 19  1  0
M  END
