
     RDKit          3D

 18 19  0  0  0  0  0  0  0  0999 V2000
   -0.9519   -2.0665   -0.3917 O   0  0  0  0  0  0  0  0  0  0  0  0
   -0.4269   -0.8112   -0.1760 C   0  0  0  0  0  0  0  0  0  0  0  0
   -1.4104    0.3127   -0.1402 C   0  0  0  0  0  0  0  0  0  0  0  0
   -0.6731    1.5812    0.2259 C   0  0  0  0  0  0  0  0  0  0  0  0
    0.6471    1.5731    0.3024 C   0  0  0  0  0  0  0  0  0  0  0  0
    1.3331    0.2944    0.0364 C   0  0  0  0  0  0  0  0  0  0  0  0
    0.6227   -0.7454    0.9202 C   0  0  0  0  0  0  0  0  0  0  0  0
    0.6996   -0.4326   -1.1353 C   0  0  0  0  0  0  0  0  0  0  0  0
   -1.3316   -2.3781    0.4802 H   0  0  0  0  0  0  0  0  0  0  0  0
   -2.2429    0.1252    0.5557 H   0  0  0  0  0  0  0  0  0  0  0  0
   -1.8271    0.4901   -1.1484 H   0  0  0  0  0  0  0  0  0  0  0  0
   -1.2331    2.4746    0.4195 H   0  0  0  0  0  0  0  0  0  0  0  0
    1.1861    2.4522    0.5453 H   0  0  0  0  0  0  0  0  0  0  0  0
    2.4164    0.2744    0.0921 H   0  0  0  0  0  0  0  0  0  0  0  0
    1.2254   -1.6685    0.9024 H   0  0  0  0  0  0  0  0  0  0  0  0
    0.2827   -0.3716    1.8833 H   0  0  0  0  0  0  0  0  0  0  0  0
    0.3707    0.2020   -1.9650 H   0  0  0  0  0  0  0  0  0  0  0  0
    1.3132   -1.3059   -1.4069 H   0  0  0  0  0  0  0  0  0  0  0  0
  1  2  1  0
  2  3  1  0
  3  4  1  0
  4  5  2  0
  5  6  1  0
  6  7  1  0
  6  8  1  0
  7  2  1  0
  8  2  1  0
  1  9  1  0
  3 10  1  0
  3 11  1  0
  4 12  1  0
  5 13  1  0
  6 14  1  0
  7 15  1  0
  7 16  1  0
  8 17  1  0
  8 18  1  0
M  END
