
     RDKit          3D

 19 21  0  0  0  0  0  0  0  0999 V2000
   -1.9241   -1.3982    0.9749 O   0  0  0  0  0  0  0  0  0  0  0  0
   -0.9975   -0.6179    0.4443 C   0  0  0  0  0  0  0  0  0  0  0  0
   -0.5307   -0.8997   -0.9929 C   0  0  0  0  0  0  0  0  0  0  0  0
   -0.0923    0.5747   -0.9252 C   0  0  0  0  0  0  0  0  0  0  0  0
   -1.3841    0.7452   -0.1110 C   0  0  0  0  0  0  0  0  0  0  0  0
    0.9845    0.4977    0.0670 C   0  0  0  0  0  0  0  0  0  0  0  0
    2.1991    1.0658    0.2133 C   0  0  0  0  0  0  0  0  0  0  0  0
    2.1463   -0.2254   -0.5203 O   0  0  0  0  0  0  0  0  0  0  0  0
    0.2982   -0.3462    1.1588 C   0  0  0  0  0  0  0  0  0  0  0  0
   -2.4384   -1.8958    0.2885 H   0  0  0  0  0  0  0  0  0  0  0  0
    0.3314   -1.5839   -1.0102 H   0  0  0  0  0  0  0  0  0  0  0  0
   -1.3444   -1.0958   -1.6989 H   0  0  0  0  0  0  0  0  0  0  0  0
   -0.0158    1.1004   -1.8396 H   0  0  0  0  0  0  0  0  0  0  0  0
   -1.3320    1.5738    0.5885 H   0  0  0  0  0  0  0  0  0  0  0  0
   -2.3046    0.6324   -0.7136 H   0  0  0  0  0  0  0  0  0  0  0  0
    2.8450    0.8955    1.1028 H   0  0  0  0  0  0  0  0  0  0  0  0
    2.5912    1.8900   -0.4219 H   0  0  0  0  0  0  0  0  0  0  0  0
    0.0947    0.3254    2.0047 H   0  0  0  0  0  0  0  0  0  0  0  0
    0.8735   -1.2379    1.3907 H   0  0  0  0  0  0  0  0  0  0  0  0
  1  2  1  0
  2  3  1  0
  3  4  1  0
  4  5  1  0
  4  6  1  0
  6  7  1  0
  7  8  1  0
  6  9  1  0
  5  2  1  0
  8  6  1  0
  9  2  1  0
  1 10  1  0
  3 11  1  0
  3 12  1  0
  4 13  1  0
  5 14  1  0
  5 15  1  0
  7 16  1  0
  7 17  1  0
  9 18  1  0
  9 19  1  0
M  END
