
     RDKit          3D

 19 20  0  0  0  0  0  0  0  0999 V2000
   -1.8479    1.4696    0.3993 O   0  0  0  0  0  0  0  0  0  0  0  0
   -0.7817    0.6254    0.2077 C   0  0  0  0  0  0  0  0  0  0  0  0
    0.5648    1.1269    0.6547 C   0  0  0  0  0  0  0  0  0  0  0  0
    1.4846    0.7896   -0.3372 O   0  0  0  0  0  0  0  0  0  0  0  0
    1.8827   -0.4949   -0.1383 C   0  0  0  0  0  0  0  0  0  0  0  0
    1.0281   -1.4900   -0.3785 O   0  0  0  0  0  0  0  0  0  0  0  0
   -0.2838   -1.2761   -0.4954 C   0  0  0  0  0  0  0  0  0  0  0  0
   -0.9962   -0.7942    0.7413 C   0  0  0  0  0  0  0  0  0  0  0  0
   -0.7096   -0.0157   -1.1853 C   0  0  0  0  0  0  0  0  0  0  0  0
   -1.6690    2.3071   -0.0625 H   0  0  0  0  0  0  0  0  0  0  0  0
    0.5050    2.2098    0.8421 H   0  0  0  0  0  0  0  0  0  0  0  0
    0.8648    0.5795    1.5910 H   0  0  0  0  0  0  0  0  0  0  0  0
    2.2567   -0.5720    0.9250 H   0  0  0  0  0  0  0  0  0  0  0  0
    2.8177   -0.6539   -0.7537 H   0  0  0  0  0  0  0  0  0  0  0  0
   -0.8131   -2.1524   -0.9522 H   0  0  0  0  0  0  0  0  0  0  0  0
   -2.0993   -1.0050    0.6862 H   0  0  0  0  0  0  0  0  0  0  0  0
   -0.5291   -1.0050    1.7005 H   0  0  0  0  0  0  0  0  0  0  0  0
   -1.7263   -0.0919   -1.6060 H   0  0  0  0  0  0  0  0  0  0  0  0
    0.0516    0.4433   -1.8383 H   0  0  0  0  0  0  0  0  0  0  0  0
  1  2  1  0
  2  3  1  0
  3  4  1  0
  4  5  1  0
  5  6  1  0
  6  7  1  0
  7  8  1  0
  7  9  1  0
  8  2  1  0
  9  2  1  0
  1 10  1  0
  3 11  1  0
  3 12  1  0
  5 13  1  0
  5 14  1  0
  7 15  1  0
  8 16  1  0
  8 17  1  0
  9 18  1  0
  9 19  1  0
M  END
