
     RDKit          3D

 17 19  0  0  0  0  0  0  0  0999 V2000
   -2.0830    0.3748    0.9074 O   0  0  0  0  0  0  0  0  0  0  0  0
   -0.9601   -0.1563    0.3480 C   0  0  0  0  0  0  0  0  0  0  0  0
   -1.0413   -0.9779   -0.9315 C   0  0  0  0  0  0  0  0  0  0  0  0
    0.1814   -0.9218   -1.5423 O   0  0  0  0  0  0  0  0  0  0  0  0
    0.9917   -0.0237   -0.8918 C   0  0  0  0  0  0  0  0  0  0  0  0
    1.6039   -0.5640    0.4111 C   0  0  0  0  0  0  0  0  0  0  0  0
    0.3196   -0.1703    1.0928 C   0  0  0  0  0  0  0  0  0  0  0  0
    0.1099    0.7849    0.0046 C   0  0  0  0  0  0  0  0  0  0  0  0
    0.0881    2.1136    0.0788 O   0  0  0  0  0  0  0  0  0  0  0  0
   -2.1527    0.2923    1.8774 H   0  0  0  0  0  0  0  0  0  0  0  0
   -1.7985   -0.4396   -1.5731 H   0  0  0  0  0  0  0  0  0  0  0  0
   -1.4107   -1.9845   -0.7083 H   0  0  0  0  0  0  0  0  0  0  0  0
    1.6779    0.5740   -1.4991 H   0  0  0  0  0  0  0  0  0  0  0  0
    1.8552   -1.6198    0.3969 H   0  0  0  0  0  0  0  0  0  0  0  0
    2.4644    0.1207    0.6664 H   0  0  0  0  0  0  0  0  0  0  0  0
    0.3461    0.0885    2.1476 H   0  0  0  0  0  0  0  0  0  0  0  0
   -0.1918    2.5093   -0.7850 H   0  0  0  0  0  0  0  0  0  0  0  0
  1  2  1  0
  2  3  1  0
  3  4  1  0
  4  5  1  0
  5  6  1  0
  6  7  1  0
  7  8  1  0
  8  9  1  0
  7  2  1  0
  8  2  1  0
  8  5  1  0
  1 10  1  0
  3 11  1  0
  3 12  1  0
  5 13  1  0
  6 14  1  0
  6 15  1  0
  7 16  1  0
  9 17  1  0
M  END
