
     RDKit          3D

 19 21  0  0  0  0  0  0  0  0999 V2000
    0.1275    1.6185   -0.4781 O   0  0  0  0  0  0  0  0  0  0  0  0
   -0.3806    0.4777    0.1331 C   0  0  0  0  0  0  0  0  0  0  0  0
   -1.7099    0.5102    0.8013 C   0  0  0  0  0  0  0  0  0  0  0  0
   -2.1518   -0.6973    0.0151 C   0  0  0  0  0  0  0  0  0  0  0  0
   -0.8605   -0.6066   -0.7682 C   0  0  0  0  0  0  0  0  0  0  0  0
    0.3676   -0.8315   -0.0260 C   0  0  0  0  0  0  0  0  0  0  0  0
    1.7363   -0.6687   -0.6155 C   0  0  0  0  0  0  0  0  0  0  0  0
    2.6441    0.2128    0.2173 C   0  0  0  0  0  0  0  0  0  0  0  0
    2.8481   -1.1480    0.0185 O   0  0  0  0  0  0  0  0  0  0  0  0
   -0.3407    2.3895   -0.1153 H   0  0  0  0  0  0  0  0  0  0  0  0
   -1.6939    0.3847    1.8981 H   0  0  0  0  0  0  0  0  0  0  0  0
   -2.2514    1.4577    0.5518 H   0  0  0  0  0  0  0  0  0  0  0  0
   -3.0740   -0.6000   -0.5603 H   0  0  0  0  0  0  0  0  0  0  0  0
   -2.1007   -1.6136    0.6726 H   0  0  0  0  0  0  0  0  0  0  0  0
   -0.9046   -0.3684   -1.8471 H   0  0  0  0  0  0  0  0  0  0  0  0
    0.3201   -1.4868    0.8668 H   0  0  0  0  0  0  0  0  0  0  0  0
    1.7883   -0.4575   -1.7202 H   0  0  0  0  0  0  0  0  0  0  0  0
    3.2732    0.9527   -0.2869 H   0  0  0  0  0  0  0  0  0  0  0  0
    2.3629    0.4747    1.2428 H   0  0  0  0  0  0  0  0  0  0  0  0
  1  2  1  0
  2  3  1  0
  3  4  1  0
  4  5  1  0
  5  6  1  0
  6  7  1  0
  7  8  1  0
  8  9  1  0
  5  2  1  0
  9  7  1  0
  6  2  1  0
  1 10  1  0
  3 11  1  0
  3 12  1  0
  4 13  1  0
  4 14  1  0
  5 15  1  0
  6 16  1  0
  7 17  1  0
  8 18  1  0
  8 19  1  0
M  END
