
     RDKit          3D

 17 20  0  0  0  0  0  0  0  0999 V2000
   -0.5652   -2.0827   -0.1119 O   0  0  0  0  0  0  0  0  0  0  0  0
   -0.3916   -0.7531   -0.0337 C   0  0  0  0  0  0  0  0  0  0  0  0
    0.7386   -0.1864    0.7445 C   0  0  0  0  0  0  0  0  0  0  0  0
    1.6393   -0.6122   -0.3801 C   0  0  0  0  0  0  0  0  0  0  0  0
    0.4309   -0.0547   -1.0793 C   0  0  0  0  0  0  0  0  0  0  0  0
    0.5123    1.0569   -0.0757 C   0  0  0  0  0  0  0  0  0  0  0  0
   -0.9002    1.5074    0.1471 C   0  0  0  0  0  0  0  0  0  0  0  0
   -1.8911    1.1152   -0.7564 O   0  0  0  0  0  0  0  0  0  0  0  0
   -1.5969    0.1342    0.1677 C   0  0  0  0  0  0  0  0  0  0  0  0
   -1.3886   -2.2755   -0.6280 H   0  0  0  0  0  0  0  0  0  0  0  0
    0.9243   -0.2334    1.7262 H   0  0  0  0  0  0  0  0  0  0  0  0
    1.8477   -1.6677   -0.4911 H   0  0  0  0  0  0  0  0  0  0  0  0
    2.4858    0.0998   -0.4788 H   0  0  0  0  0  0  0  0  0  0  0  0
    0.2604    0.0064   -2.0590 H   0  0  0  0  0  0  0  0  0  0  0  0
    1.2954    1.7797   -0.1506 H   0  0  0  0  0  0  0  0  0  0  0  0
   -1.1262    2.2193    0.9445 H   0  0  0  0  0  0  0  0  0  0  0  0
   -2.2750   -0.0534    1.0077 H   0  0  0  0  0  0  0  0  0  0  0  0
  1  2  1  0
  2  3  1  0
  3  4  1  0
  4  5  1  0
  5  6  1  0
  6  7  1  0
  7  8  1  0
  8  9  1  0
  5  2  1  0
  9  7  1  0
  9  2  1  0
  6  3  1  0
  1 10  1  0
  3 11  1  0
  4 12  1  0
  4 13  1  0
  5 14  1  0
  6 15  1  0
  7 16  1  0
  9 17  1  0
M  END
