
     RDKit          3D

 21 23  0  0  0  0  0  0  0  0999 V2000
   -2.3942    0.6555    0.9643 O   0  0  0  0  0  0  0  0  0  0  0  0
   -1.1123    0.4425    0.5531 C   0  0  0  0  0  0  0  0  0  0  0  0
   -0.5420    1.0969   -0.6658 C   0  0  0  0  0  0  0  0  0  0  0  0
    0.4665    0.0789   -1.2142 C   0  0  0  0  0  0  0  0  0  0  0  0
    1.7131    0.0565   -0.3359 C   0  0  0  0  0  0  0  0  0  0  0  0
    1.2702    0.4193    1.0440 C   0  0  0  0  0  0  0  0  0  0  0  0
   -0.0545   -0.1274    1.3873 C   0  0  0  0  0  0  0  0  0  0  0  0
   -0.7129   -1.0333    0.4845 C   0  0  0  0  0  0  0  0  0  0  0  0
   -0.2640   -1.1969   -0.8920 C   0  0  0  0  0  0  0  0  0  0  0  0
   -3.0009    0.1953    0.3021 H   0  0  0  0  0  0  0  0  0  0  0  0
   -1.3503    1.1550   -1.4309 H   0  0  0  0  0  0  0  0  0  0  0  0
   -0.0755    2.0714   -0.4841 H   0  0  0  0  0  0  0  0  0  0  0  0
    0.6832    0.2283   -2.2669 H   0  0  0  0  0  0  0  0  0  0  0  0
    2.0990   -1.0041   -0.2851 H   0  0  0  0  0  0  0  0  0  0  0  0
    2.5292    0.6549   -0.7376 H   0  0  0  0  0  0  0  0  0  0  0  0
    2.0458    0.1050    1.7931 H   0  0  0  0  0  0  0  0  0  0  0  0
    1.2434    1.5421    1.1348 H   0  0  0  0  0  0  0  0  0  0  0  0
   -0.2647   -0.2322    2.4680 H   0  0  0  0  0  0  0  0  0  0  0  0
   -1.4196   -1.7852    0.8847 H   0  0  0  0  0  0  0  0  0  0  0  0
    0.3070   -2.1023   -1.1331 H   0  0  0  0  0  0  0  0  0  0  0  0
   -1.1664   -1.2203   -1.5703 H   0  0  0  0  0  0  0  0  0  0  0  0
  1  2  1  0
  2  3  1  0
  3  4  1  0
  4  5  1  0
  5  6  1  0
  6  7  1  0
  7  8  1  0
  8  9  1  0
  7  2  1  0
  8  2  1  0
  9  4  1  0
  1 10  1  0
  3 11  1  0
  3 12  1  0
  4 13  1  0
  5 14  1  0
  5 15  1  0
  6 16  1  0
  6 17  1  0
  7 18  1  0
  8 19  1  0
  9 20  1  0
  9 21  1  0
M  END
