
     RDKit          3D

 21 23  0  0  0  0  0  0  0  0999 V2000
   -0.3269    2.6129    0.3562 O   0  0  0  0  0  0  0  0  0  0  0  0
   -0.1556    1.2519    0.1192 C   0  0  0  0  0  0  0  0  0  0  0  0
    1.2476    0.8064   -0.0112 C   0  0  0  0  0  0  0  0  0  0  0  0
    1.4574   -0.6483   -0.1945 C   0  0  0  0  0  0  0  0  0  0  0  0
    0.1409   -1.3654   -0.2395 C   0  0  0  0  0  0  0  0  0  0  0  0
   -0.5754   -1.0048    1.0679 C   0  0  0  0  0  0  0  0  0  0  0  0
   -1.1009    0.3533    0.7630 C   0  0  0  0  0  0  0  0  0  0  0  0
   -1.1550    0.5579   -0.6922 C   0  0  0  0  0  0  0  0  0  0  0  0
   -0.7405   -0.7349   -1.2942 C   0  0  0  0  0  0  0  0  0  0  0  0
    0.3085    2.8408    1.0936 H   0  0  0  0  0  0  0  0  0  0  0  0
    1.6973    1.3260   -0.9083 H   0  0  0  0  0  0  0  0  0  0  0  0
    1.8231    1.2208    0.8661 H   0  0  0  0  0  0  0  0  0  0  0  0
    2.1032   -0.9266   -1.0470 H   0  0  0  0  0  0  0  0  0  0  0  0
    2.0025   -1.0294    0.7189 H   0  0  0  0  0  0  0  0  0  0  0  0
    0.2102   -2.4504   -0.3185 H   0  0  0  0  0  0  0  0  0  0  0  0
   -1.3177   -1.7604    1.3030 H   0  0  0  0  0  0  0  0  0  0  0  0
    0.1734   -0.8925    1.9017 H   0  0  0  0  0  0  0  0  0  0  0  0
   -1.9597    0.7177    1.3471 H   0  0  0  0  0  0  0  0  0  0  0  0
   -1.9513    1.1582   -1.1877 H   0  0  0  0  0  0  0  0  0  0  0  0
   -1.6628   -1.3753   -1.3837 H   0  0  0  0  0  0  0  0  0  0  0  0
   -0.2180   -0.6580   -2.2598 H   0  0  0  0  0  0  0  0  0  0  0  0
  1  2  1  0
  2  3  1  0
  3  4  1  0
  4  5  1  0
  5  6  1  0
  6  7  1  0
  7  8  1  0
  8  9  1  0
  7  2  1  0
  8  2  1  0
  9  5  1  0
  1 10  1  0
  3 11  1  0
  3 12  1  0
  4 13  1  0
  4 14  1  0
  5 15  1  0
  6 16  1  0
  6 17  1  0
  7 18  1  0
  8 19  1  0
  9 20  1  0
  9 21  1  0
M  END
