
     RDKit          3D

 19 22  0  0  0  0  0  0  0  0999 V2000
    1.3807   -1.6741    0.8483 O   0  0  0  0  0  0  0  0  0  0  0  0
    0.7610   -0.5903    0.4052 C   0  0  0  0  0  0  0  0  0  0  0  0
    1.6783    0.3991   -0.3404 C   0  0  0  0  0  0  0  0  0  0  0  0
    0.3258    0.8875   -0.8846 C   0  0  0  0  0  0  0  0  0  0  0  0
   -0.4943    1.3591    0.2705 C   0  0  0  0  0  0  0  0  0  0  0  0
   -1.4645    0.3468    0.6413 C   0  0  0  0  0  0  0  0  0  0  0  0
   -1.4372   -0.6235   -0.5478 C   0  0  0  0  0  0  0  0  0  0  0  0
   -0.0007   -0.6134   -0.8938 C   0  0  0  0  0  0  0  0  0  0  0  0
   -0.1565    0.2017    1.2809 C   0  0  0  0  0  0  0  0  0  0  0  0
    0.8305   -2.4509    1.0279 H   0  0  0  0  0  0  0  0  0  0  0  0
    2.2672   -0.1408   -1.0778 H   0  0  0  0  0  0  0  0  0  0  0  0
    2.1713    1.0886    0.3400 H   0  0  0  0  0  0  0  0  0  0  0  0
    0.3237    1.3969   -1.8126 H   0  0  0  0  0  0  0  0  0  0  0  0
   -0.4121    2.3608    0.6817 H   0  0  0  0  0  0  0  0  0  0  0  0
   -2.3948    0.5095    1.1597 H   0  0  0  0  0  0  0  0  0  0  0  0
   -2.0070   -0.1811   -1.4119 H   0  0  0  0  0  0  0  0  0  0  0  0
   -1.8544   -1.5928   -0.2614 H   0  0  0  0  0  0  0  0  0  0  0  0
    0.3831   -1.1823   -1.7119 H   0  0  0  0  0  0  0  0  0  0  0  0
    0.0998    0.4990    2.2867 H   0  0  0  0  0  0  0  0  0  0  0  0
  1  2  1  0
  2  3  1  0
  3  4  1  0
  4  5  1  0
  5  6  1  0
  6  7  1  0
  7  8  1  0
  6  9  1  0
  8  2  1  0
  9  2  1  0
  8  4  1  0
  9  5  1  0
  1 10  1  0
  3 11  1  0
  3 12  1  0
  4 13  1  0
  5 14  1  0
  6 15  1  0
  7 16  1  0
  7 17  1  0
  8 18  1  0
  9 19  1  0
M  END
