
     RDKit          3D

 19 20  0  0  0  0  0  0  0  0999 V2000
   -0.1121   -1.2245    1.4680 O   0  0  0  0  0  0  0  0  0  0  0  0
    0.1564   -1.0373    0.0887 C   0  0  0  0  0  0  0  0  0  0  0  0
   -1.1017   -0.9200   -0.6713 C   0  0  0  0  0  0  0  0  0  0  0  0
   -1.7476    0.3540   -0.1593 C   0  0  0  0  0  0  0  0  0  0  0  0
   -1.0523    1.2907    0.4711 C   0  0  0  0  0  0  0  0  0  0  0  0
    0.4128    1.2126    0.7488 C   0  0  0  0  0  0  0  0  0  0  0  0
    0.9016    0.2936   -0.3000 C   0  0  0  0  0  0  0  0  0  0  0  0
    0.5943    0.8200   -1.5828 O   0  0  0  0  0  0  0  0  0  0  0  0
    1.5228   -0.9682   -0.2749 C   0  0  0  0  0  0  0  0  0  0  0  0
    0.6781   -1.5244    1.9563 H   0  0  0  0  0  0  0  0  0  0  0  0
   -1.0161   -0.9099   -1.7589 H   0  0  0  0  0  0  0  0  0  0  0  0
   -1.7848   -1.7453   -0.3884 H   0  0  0  0  0  0  0  0  0  0  0  0
   -2.8124    0.4247   -0.3543 H   0  0  0  0  0  0  0  0  0  0  0  0
   -1.5905    2.1637    0.8013 H   0  0  0  0  0  0  0  0  0  0  0  0
    0.8981    2.2064    0.7271 H   0  0  0  0  0  0  0  0  0  0  0  0
    0.5195    0.7769    1.7692 H   0  0  0  0  0  0  0  0  0  0  0  0
    1.3800    1.3898   -1.8029 H   0  0  0  0  0  0  0  0  0  0  0  0
    1.8563   -1.4208   -1.2439 H   0  0  0  0  0  0  0  0  0  0  0  0
    2.2978   -1.1819    0.5061 H   0  0  0  0  0  0  0  0  0  0  0  0
  1  2  1  0
  2  3  1  0
  3  4  1  0
  4  5  2  0
  5  6  1  0
  6  7  1  0
  7  8  1  0
  7  9  1  0
  7  2  1  0
  9  2  1  0
  1 10  1  0
  3 11  1  0
  3 12  1  0
  4 13  1  0
  5 14  1  0
  6 15  1  0
  6 16  1  0
  8 17  1  0
  9 18  1  0
  9 19  1  0
M  END
