
     RDKit          3D

 17 20  0  0  0  0  0  0  0  0999 V2000
    1.6530    1.7077   -0.5154 O   0  0  0  0  0  0  0  0  0  0  0  0
    0.8513    0.6461   -0.3062 C   0  0  0  0  0  0  0  0  0  0  0  0
   -0.3072    0.2900   -1.1815 C   0  0  0  0  0  0  0  0  0  0  0  0
   -1.4613    0.2915   -0.1656 C   0  0  0  0  0  0  0  0  0  0  0  0
   -0.7480   -0.6110    0.8521 C   0  0  0  0  0  0  0  0  0  0  0  0
    0.0405   -1.5011   -0.0503 C   0  0  0  0  0  0  0  0  0  0  0  0
   -0.2073   -1.1012   -1.3753 O   0  0  0  0  0  0  0  0  0  0  0  0
    1.2546   -0.6490    0.2533 C   0  0  0  0  0  0  0  0  0  0  0  0
    0.4707    0.1931    1.0970 C   0  0  0  0  0  0  0  0  0  0  0  0
    1.1584    2.5789   -0.3984 H   0  0  0  0  0  0  0  0  0  0  0  0
   -0.4783    0.8688   -2.0510 H   0  0  0  0  0  0  0  0  0  0  0  0
   -2.3646   -0.1529   -0.5605 H   0  0  0  0  0  0  0  0  0  0  0  0
   -1.5733    1.2904    0.2885 H   0  0  0  0  0  0  0  0  0  0  0  0
   -1.3300   -1.0116    1.6458 H   0  0  0  0  0  0  0  0  0  0  0  0
    0.0968   -2.5512    0.1483 H   0  0  0  0  0  0  0  0  0  0  0  0
    2.2381   -1.0396    0.3535 H   0  0  0  0  0  0  0  0  0  0  0  0
    0.7065    0.7512    1.9656 H   0  0  0  0  0  0  0  0  0  0  0  0
  1  2  1  0
  2  3  1  0
  3  4  1  0
  4  5  1  0
  5  6  1  0
  6  7  1  0
  6  8  1  0
  8  9  1  0
  8  2  1  0
  9  2  1  0
  7  3  1  0
  9  5  1  0
  1 10  1  0
  3 11  1  0
  4 12  1  0
  4 13  1  0
  5 14  1  0
  6 15  1  0
  8 16  1  0
  9 17  1  0
M  END
