
     RDKit          3D

 14 17  0  0  0  0  0  0  0  0999 V2000
    1.2970    1.6412    0.4851 O   0  0  0  0  0  0  0  0  0  0  0  0
    0.4215    0.6993    0.2149 C   0  0  0  0  0  0  0  0  0  0  0  0
   -0.8864    0.4419    0.8676 C   0  0  0  0  0  0  0  0  0  0  0  0
   -1.4112   -0.0693   -0.3868 C   0  0  0  0  0  0  0  0  0  0  0  0
   -0.7664   -0.9615    0.5449 C   0  0  0  0  0  0  0  0  0  0  0  0
    0.5408   -0.6914   -0.0962 C   0  0  0  0  0  0  0  0  0  0  0  0
    1.5481   -1.5030   -0.2982 O   0  0  0  0  0  0  0  0  0  0  0  0
   -0.1240    0.2268   -1.0329 C   0  0  0  0  0  0  0  0  0  0  0  0
    1.6959    2.0573   -0.3295 H   0  0  0  0  0  0  0  0  0  0  0  0
   -1.3410    0.9526    1.6573 H   0  0  0  0  0  0  0  0  0  0  0  0
   -2.3812   -0.0474   -0.7863 H   0  0  0  0  0  0  0  0  0  0  0  0
   -1.0903   -1.8271    1.0381 H   0  0  0  0  0  0  0  0  0  0  0  0
    2.3987   -1.3540    0.1550 H   0  0  0  0  0  0  0  0  0  0  0  0
    0.0985    0.4348   -2.0331 H   0  0  0  0  0  0  0  0  0  0  0  0
  1  2  1  0
  2  3  1  0
  3  4  1  0
  4  5  1  0
  5  6  1  0
  6  7  1  0
  6  8  1  0
  6  2  1  0
  8  2  1  0
  5  3  1  0
  8  4  1  0
  1  9  1  0
  3 10  1  0
  4 11  1  0
  5 12  1  0
  7 13  1  0
  8 14  1  0
M  END
