
     RDKit          3D

 21 23  0  0  0  0  0  0  0  0999 V2000
   -2.4784   -1.2560    0.4481 O   0  0  0  0  0  0  0  0  0  0  0  0
   -1.3887   -0.5322    0.2451 C   0  0  0  0  0  0  0  0  0  0  0  0
   -1.1364    0.7196    1.0359 C   0  0  0  0  0  0  0  0  0  0  0  0
   -0.2507    1.0873   -0.1662 C   0  0  0  0  0  0  0  0  0  0  0  0
   -1.3399    0.3839   -0.9869 C   0  0  0  0  0  0  0  0  0  0  0  0
    0.8154    0.0728   -0.0445 C   0  0  0  0  0  0  0  0  0  0  0  0
    2.0907    0.0552   -0.6961 C   0  0  0  0  0  0  0  0  0  0  0  0
    1.9733    0.3570    0.7932 C   0  0  0  0  0  0  0  0  0  0  0  0
   -0.0332   -1.1896    0.1746 C   0  0  0  0  0  0  0  0  0  0  0  0
   -2.3823   -2.1682    0.1285 H   0  0  0  0  0  0  0  0  0  0  0  0
   -1.9866    1.3834    1.1970 H   0  0  0  0  0  0  0  0  0  0  0  0
   -0.4647    0.5654    1.9200 H   0  0  0  0  0  0  0  0  0  0  0  0
   -0.0665    2.1081   -0.3506 H   0  0  0  0  0  0  0  0  0  0  0  0
   -2.2121    1.0372   -1.0669 H   0  0  0  0  0  0  0  0  0  0  0  0
   -0.9779   -0.1046   -1.8989 H   0  0  0  0  0  0  0  0  0  0  0  0
    2.4431    0.8374   -1.3800 H   0  0  0  0  0  0  0  0  0  0  0  0
    2.5734   -0.9368   -0.8985 H   0  0  0  0  0  0  0  0  0  0  0  0
    2.3231   -0.3638    1.5256 H   0  0  0  0  0  0  0  0  0  0  0  0
    2.1692    1.4386    1.0393 H   0  0  0  0  0  0  0  0  0  0  0  0
    0.2512   -1.7017    1.1018 H   0  0  0  0  0  0  0  0  0  0  0  0
    0.0778   -1.7931   -0.7366 H   0  0  0  0  0  0  0  0  0  0  0  0
  1  2  1  0
  2  3  1  0
  3  4  1  0
  4  5  1  0
  4  6  1  0
  6  7  1  0
  7  8  1  0
  6  9  1  0
  5  2  1  0
  8  6  1  0
  9  2  1  0
  1 10  1  0
  3 11  1  0
  3 12  1  0
  4 13  1  0
  5 14  1  0
  5 15  1  0
  7 16  1  0
  7 17  1  0
  8 18  1  0
  8 19  1  0
  9 20  1  0
  9 21  1  0
M  END
