
     RDKit          3D

 17 19  0  0  0  0  0  0  0  0999 V2000
   -0.9810   -1.2326   -1.3437 O   0  0  0  0  0  0  0  0  0  0  0  0
   -0.7934   -0.2268   -0.5264 C   0  0  0  0  0  0  0  0  0  0  0  0
   -2.0547    0.5361   -0.2949 C   0  0  0  0  0  0  0  0  0  0  0  0
   -2.0241    0.1266    1.0595 O   0  0  0  0  0  0  0  0  0  0  0  0
   -0.6810    0.2812    0.7899 C   0  0  0  0  0  0  0  0  0  0  0  0
    0.1731   -0.7547    0.5414 C   0  0  0  0  0  0  0  0  0  0  0  0
    1.6536   -0.5266    0.2502 C   0  0  0  0  0  0  0  0  0  0  0  0
    2.1769    0.8333    0.0832 C   0  0  0  0  0  0  0  0  0  0  0  0
    2.2373    0.2235    1.3990 O   0  0  0  0  0  0  0  0  0  0  0  0
   -1.3958   -0.9261   -2.2103 H   0  0  0  0  0  0  0  0  0  0  0  0
   -1.9121    1.6245   -0.4346 H   0  0  0  0  0  0  0  0  0  0  0  0
   -2.9801    0.2067   -0.7367 H   0  0  0  0  0  0  0  0  0  0  0  0
   -0.3480    1.3564    0.8816 H   0  0  0  0  0  0  0  0  0  0  0  0
    0.0013   -1.7505    1.0114 H   0  0  0  0  0  0  0  0  0  0  0  0
    2.2768   -1.3967   -0.0416 H   0  0  0  0  0  0  0  0  0  0  0  0
    1.4931    1.6930   -0.0053 H   0  0  0  0  0  0  0  0  0  0  0  0
    3.1583    0.9234   -0.4227 H   0  0  0  0  0  0  0  0  0  0  0  0
  1  2  1  0
  2  3  1  0
  3  4  1  0
  4  5  1  0
  5  6  1  0
  6  7  1  0
  7  8  1  0
  8  9  1  0
  5  2  1  0
  9  7  1  0
  6  2  1  0
  1 10  1  0
  3 11  1  0
  3 12  1  0
  5 13  1  0
  6 14  1  0
  7 15  1  0
  8 16  1  0
  8 17  1  0
M  END
