
     RDKit          3D

 19 21  0  0  0  0  0  0  0  0999 V2000
    2.3368   -1.0540   -0.0856 O   0  0  0  0  0  0  0  0  0  0  0  0
    1.0747   -0.5224   -0.0539 C   0  0  0  0  0  0  0  0  0  0  0  0
    0.2717   -0.2899   -1.2801 C   0  0  0  0  0  0  0  0  0  0  0  0
   -0.8835    0.5957   -0.8360 C   0  0  0  0  0  0  0  0  0  0  0  0
   -1.7603   -0.3039   -0.0372 C   0  0  0  0  0  0  0  0  0  0  0  0
   -1.1562   -0.9815    0.9260 C   0  0  0  0  0  0  0  0  0  0  0  0
    0.2848   -0.7390    1.1799 C   0  0  0  0  0  0  0  0  0  0  0  0
    0.7666    0.6018    0.8425 C   0  0  0  0  0  0  0  0  0  0  0  0
   -0.2208    1.5041    0.1846 C   0  0  0  0  0  0  0  0  0  0  0  0
    2.8485   -0.8681   -0.9058 H   0  0  0  0  0  0  0  0  0  0  0  0
    0.8928    0.1789   -2.0408 H   0  0  0  0  0  0  0  0  0  0  0  0
   -0.1241   -1.2413   -1.7077 H   0  0  0  0  0  0  0  0  0  0  0  0
   -1.3796    1.1153   -1.6427 H   0  0  0  0  0  0  0  0  0  0  0  0
   -2.7963   -0.3531   -0.2760 H   0  0  0  0  0  0  0  0  0  0  0  0
   -1.6715   -1.7079    1.5382 H   0  0  0  0  0  0  0  0  0  0  0  0
    0.7124   -1.2210    2.0533 H   0  0  0  0  0  0  0  0  0  0  0  0
    1.5594    1.0801    1.4379 H   0  0  0  0  0  0  0  0  0  0  0  0
   -0.9653    1.8129    0.9674 H   0  0  0  0  0  0  0  0  0  0  0  0
    0.2098    2.3933   -0.2641 H   0  0  0  0  0  0  0  0  0  0  0  0
  1  2  1  0
  2  3  1  0
  3  4  1  0
  4  5  1  0
  5  6  2  0
  6  7  1  0
  7  8  1  0
  8  9  1  0
  7  2  1  0
  8  2  1  0
  9  4  1  0
  1 10  1  0
  3 11  1  0
  3 12  1  0
  4 13  1  0
  5 14  1  0
  6 15  1  0
  7 16  1  0
  8 17  1  0
  9 18  1  0
  9 19  1  0
M  END
