
     RDKit          3D

 17 19  0  0  0  0  0  0  0  0999 V2000
   -0.2948    1.7827   -0.8583 O   0  0  0  0  0  0  0  0  0  0  0  0
    0.2650    0.6537   -0.4682 C   0  0  0  0  0  0  0  0  0  0  0  0
    1.7210    0.3861   -0.6377 C   0  0  0  0  0  0  0  0  0  0  0  0
    1.8035   -0.9288   -0.1111 O   0  0  0  0  0  0  0  0  0  0  0  0
    0.5417   -1.1347    0.3582 C   0  0  0  0  0  0  0  0  0  0  0  0
    0.0734    0.1920    0.9820 C   0  0  0  0  0  0  0  0  0  0  0  0
   -1.3577   -0.0504    1.0984 C   0  0  0  0  0  0  0  0  0  0  0  0
   -1.6878   -0.5894   -0.0770 C   0  0  0  0  0  0  0  0  0  0  0  0
   -0.3819   -0.6741   -0.7761 C   0  0  0  0  0  0  0  0  0  0  0  0
   -1.0318    2.1320   -0.3377 H   0  0  0  0  0  0  0  0  0  0  0  0
    2.3095    1.0291    0.0479 H   0  0  0  0  0  0  0  0  0  0  0  0
    2.0533    0.4269   -1.6783 H   0  0  0  0  0  0  0  0  0  0  0  0
    0.2709   -2.0263    0.8733 H   0  0  0  0  0  0  0  0  0  0  0  0
    0.6599    0.6241    1.7346 H   0  0  0  0  0  0  0  0  0  0  0  0
   -1.9687    0.1717    1.9586 H   0  0  0  0  0  0  0  0  0  0  0  0
   -2.6862   -0.8749   -0.3877 H   0  0  0  0  0  0  0  0  0  0  0  0
   -0.2893   -1.1195   -1.7209 H   0  0  0  0  0  0  0  0  0  0  0  0
  1  2  1  0
  2  3  1  0
  3  4  1  0
  4  5  1  0
  5  6  1  0
  6  7  1  0
  7  8  2  0
  8  9  1  0
  6  2  1  0
  9  2  1  0
  9  5  1  0
  1 10  1  0
  3 11  1  0
  3 12  1  0
  5 13  1  0
  6 14  1  0
  7 15  1  0
  8 16  1  0
  9 17  1  0
M  END
