
     RDKit          3D

 21 23  0  0  0  0  0  0  0  0999 V2000
   -1.3320    0.8716   -1.2698 O   0  0  0  0  0  0  0  0  0  0  0  0
   -1.1880    0.3473    0.0410 C   0  0  0  0  0  0  0  0  0  0  0  0
   -0.1943    1.0390    0.8371 C   0  0  0  0  0  0  0  0  0  0  0  0
    1.1153    0.3834    0.8159 C   0  0  0  0  0  0  0  0  0  0  0  0
    2.3162    0.4437    0.0663 C   0  0  0  0  0  0  0  0  0  0  0  0
    1.2122    0.0389   -0.7102 C   0  0  0  0  0  0  0  0  0  0  0  0
    0.3498   -1.1204   -0.8358 C   0  0  0  0  0  0  0  0  0  0  0  0
   -0.7562   -1.1603    0.1304 C   0  0  0  0  0  0  0  0  0  0  0  0
   -2.0935   -0.7261    0.2383 C   0  0  0  0  0  0  0  0  0  0  0  0
   -1.8376    1.6917   -1.1649 H   0  0  0  0  0  0  0  0  0  0  0  0
   -0.5783    1.1545    1.8950 H   0  0  0  0  0  0  0  0  0  0  0  0
   -0.0711    2.1026    0.4943 H   0  0  0  0  0  0  0  0  0  0  0  0
    1.1434   -0.4345    1.5563 H   0  0  0  0  0  0  0  0  0  0  0  0
    3.1372   -0.3116    0.1990 H   0  0  0  0  0  0  0  0  0  0  0  0
    2.8038    1.4437   -0.0324 H   0  0  0  0  0  0  0  0  0  0  0  0
    0.9202    0.8594   -1.4318 H   0  0  0  0  0  0  0  0  0  0  0  0
   -0.0982   -1.2194   -1.8715 H   0  0  0  0  0  0  0  0  0  0  0  0
    0.9853   -2.0554   -0.7679 H   0  0  0  0  0  0  0  0  0  0  0  0
   -0.3834   -1.5659    1.0883 H   0  0  0  0  0  0  0  0  0  0  0  0
   -2.6270   -0.7132    1.2370 H   0  0  0  0  0  0  0  0  0  0  0  0
   -2.8238   -1.0692   -0.5146 H   0  0  0  0  0  0  0  0  0  0  0  0
  1  2  1  0
  2  3  1  0
  3  4  1  0
  4  5  1  0
  5  6  1  0
  6  7  1  0
  7  8  1  0
  8  9  1  0
  8  2  1  0
  9  2  1  0
  6  4  1  0
  1 10  1  0
  3 11  1  0
  3 12  1  0
  4 13  1  0
  5 14  1  0
  5 15  1  0
  6 16  1  0
  7 17  1  0
  7 18  1  0
  8 19  1  0
  9 20  1  0
  9 21  1  0
M  END
