
     RDKit          2D

 17 20  0  0  0  0  0  0  0  0999 V2000
   -2.3597    0.7500    0.0000 O   0  0  0  0  0  0  0  0  0  0  0  0
   -1.0607    0.0000    0.0000 C   0  0  0  0  0  0  0  0  0  0  0  0
   -0.0000   -1.0607    0.0000 C   0  0  0  0  0  0  0  0  0  0  0  0
    1.0607    0.0000    0.0000 O   0  0  0  0  0  0  0  0  0  0  0  0
    0.0000    1.0607    0.0000 C   0  0  0  0  0  0  0  0  0  0  0  0
   -1.4489    0.6724    0.0000 C   0  0  0  0  0  0  0  0  0  0  0  0
   -2.8575    1.1880    0.0000 C   0  0  0  0  0  0  0  0  0  0  0  0
   -1.7067    2.1501    0.0000 C   0  0  0  0  0  0  0  0  0  0  0  0
   -1.4489   -1.4489    0.0000 C   0  0  0  0  0  0  0  0  0  0  0  0
   -3.5576   -0.1528    0.0000 H   0  0  0  0  0  0  0  0  0  0  0  0
    0.7500   -2.3597    0.0000 H   0  0  0  0  0  0  0  0  0  0  0  0
    0.1828    2.5495    0.0000 H   0  0  0  0  0  0  0  0  0  0  0  0
   -3.7624   -0.0083    0.0000 H   0  0  0  0  0  0  0  0  0  0  0  0
   -4.0048    2.1543    0.0000 H   0  0  0  0  0  0  0  0  0  0  0  0
   -2.4543    3.4505    0.0000 H   0  0  0  0  0  0  0  0  0  0  0  0
   -0.3690    2.8287    0.0000 H   0  0  0  0  0  0  0  0  0  0  0  0
   -2.5095   -2.5095    0.0000 H   0  0  0  0  0  0  0  0  0  0  0  0
  1  2  1  0
  2  3  1  0
  3  4  1  0
  4  5  1  0
  5  6  1  0
  6  7  1  0
  7  8  1  0
  6  9  1  0
  5  2  1  0
  8  6  1  0
  9  2  1  0
  9  3  1  0
  1 10  1  0
  3 11  1  0
  5 12  1  0
  7 13  1  0
  7 14  1  0
  8 15  1  0
  8 16  1  0
  9 17  1  0
M  END
