
     RDKit          3D

 19 21  0  0  0  0  0  0  0  0999 V2000
   -1.5589   -1.7872    0.5801 O   0  0  0  0  0  0  0  0  0  0  0  0
   -1.3034   -0.5849   -0.0440 C   0  0  0  0  0  0  0  0  0  0  0  0
   -2.1971    0.5546    0.2265 C   0  0  0  0  0  0  0  0  0  0  0  0
   -0.8368    0.5968    0.8140 C   0  0  0  0  0  0  0  0  0  0  0  0
    0.2538    0.8620   -0.1695 C   0  0  0  0  0  0  0  0  0  0  0  0
    1.6569    0.7771    0.3081 C   0  0  0  0  0  0  0  0  0  0  0  0
    2.1117   -0.5647   -0.2784 C   0  0  0  0  0  0  0  0  0  0  0  0
    0.9494   -1.3025   -0.1874 O   0  0  0  0  0  0  0  0  0  0  0  0
   -0.0174   -0.4796   -0.7720 C   0  0  0  0  0  0  0  0  0  0  0  0
   -2.1761   -2.2984   -0.0367 H   0  0  0  0  0  0  0  0  0  0  0  0
   -2.4448    1.2960   -0.5796 H   0  0  0  0  0  0  0  0  0  0  0  0
   -3.0594    0.3480    0.8818 H   0  0  0  0  0  0  0  0  0  0  0  0
   -0.6424    0.4232    1.8745 H   0  0  0  0  0  0  0  0  0  0  0  0
    0.0008    1.6857   -0.8615 H   0  0  0  0  0  0  0  0  0  0  0  0
    1.7951    0.7964    1.3855 H   0  0  0  0  0  0  0  0  0  0  0  0
    2.2382    1.6008   -0.1920 H   0  0  0  0  0  0  0  0  0  0  0  0
    2.9509   -0.9831    0.2786 H   0  0  0  0  0  0  0  0  0  0  0  0
    2.3316   -0.4139   -1.3513 H   0  0  0  0  0  0  0  0  0  0  0  0
   -0.0521   -0.5264   -1.8766 H   0  0  0  0  0  0  0  0  0  0  0  0
  1  2  1  0
  2  3  1  0
  3  4  1  0
  4  5  1  0
  5  6  1  0
  6  7  1  0
  7  8  1  0
  8  9  1  0
  4  2  1  0
  9  5  1  0
  9  2  1  0
  1 10  1  0
  3 11  1  0
  3 12  1  0
  4 13  1  0
  5 14  1  0
  6 15  1  0
  6 16  1  0
  7 17  1  0
  7 18  1  0
  9 19  1  0
M  END
