
     RDKit          3D

 16 17  0  0  0  0  0  0  0  0999 V2000
   -1.1243    0.8086    1.3586 O   0  0  0  0  0  0  0  0  0  0  0  0
   -0.9698    0.4804   -0.0163 C   0  0  0  0  0  0  0  0  0  0  0  0
    0.1059    1.2788   -0.5789 C   0  0  0  0  0  0  0  0  0  0  0  0
    1.3185    0.8159   -0.2656 C   0  0  0  0  0  0  0  0  0  0  0  0
    1.5338   -0.3977    0.5769 C   0  0  0  0  0  0  0  0  0  0  0  0
    0.3701   -1.1636    0.7515 O   0  0  0  0  0  0  0  0  0  0  0  0
   -0.4203   -0.9628   -0.3154 C   0  0  0  0  0  0  0  0  0  0  0  0
   -1.7648   -0.5683   -0.4945 C   0  0  0  0  0  0  0  0  0  0  0  0
   -0.9418    0.0355    1.9315 H   0  0  0  0  0  0  0  0  0  0  0  0
    0.0241    2.1576   -1.1893 H   0  0  0  0  0  0  0  0  0  0  0  0
    2.2187    1.3105   -0.6161 H   0  0  0  0  0  0  0  0  0  0  0  0
    2.0161   -0.1485    1.5419 H   0  0  0  0  0  0  0  0  0  0  0  0
    2.2024   -1.0575   -0.0559 H   0  0  0  0  0  0  0  0  0  0  0  0
    0.1806   -1.0887   -1.2668 H   0  0  0  0  0  0  0  0  0  0  0  0
   -2.1848   -0.5084   -1.5362 H   0  0  0  0  0  0  0  0  0  0  0  0
   -2.5644   -0.9917    0.1746 H   0  0  0  0  0  0  0  0  0  0  0  0
  1  2  1  0
  2  3  1  0
  3  4  2  0
  4  5  1  0
  5  6  1  0
  6  7  1  0
  7  8  1  0
  7  2  1  0
  8  2  1  0
  1  9  1  0
  3 10  1  0
  4 11  1  0
  5 12  1  0
  5 13  1  0
  7 14  1  0
  8 15  1  0
  8 16  1  0
M  END
