
     RDKit          3D

 19 20  0  0  0  0  0  0  0  0999 V2000
   -0.9539   -1.9594   -0.9289 O   0  0  0  0  0  0  0  0  0  0  0  0
   -0.4450   -0.8361   -0.3161 C   0  0  0  0  0  0  0  0  0  0  0  0
    0.5124   -1.1517    0.7807 C   0  0  0  0  0  0  0  0  0  0  0  0
    1.6300   -0.4597    0.6568 C   0  0  0  0  0  0  0  0  0  0  0  0
    1.2951    0.6832   -0.2724 C   0  0  0  0  0  0  0  0  0  0  0  0
    0.4287    1.5859    0.5273 C   0  0  0  0  0  0  0  0  0  0  0  0
   -0.8532    1.3211    0.7041 C   0  0  0  0  0  0  0  0  0  0  0  0
   -1.5257    0.1306    0.1156 C   0  0  0  0  0  0  0  0  0  0  0  0
    0.4615   -0.0868   -1.2958 C   0  0  0  0  0  0  0  0  0  0  0  0
   -1.8145   -2.1819   -0.5213 H   0  0  0  0  0  0  0  0  0  0  0  0
    0.3125   -1.8576    1.5736 H   0  0  0  0  0  0  0  0  0  0  0  0
    2.5867   -0.6245    1.0927 H   0  0  0  0  0  0  0  0  0  0  0  0
    2.1731    1.1529   -0.6971 H   0  0  0  0  0  0  0  0  0  0  0  0
    0.8743    2.4604    0.9578 H   0  0  0  0  0  0  0  0  0  0  0  0
   -1.4194    2.0279    1.3158 H   0  0  0  0  0  0  0  0  0  0  0  0
   -2.0763    0.4204   -0.8000 H   0  0  0  0  0  0  0  0  0  0  0  0
   -2.2065   -0.3656    0.8319 H   0  0  0  0  0  0  0  0  0  0  0  0
    1.1113   -0.8256   -1.7586 H   0  0  0  0  0  0  0  0  0  0  0  0
   -0.0913    0.5667   -1.9663 H   0  0  0  0  0  0  0  0  0  0  0  0
  1  2  1  0
  2  3  1  0
  3  4  2  0
  4  5  1  0
  5  6  1  0
  6  7  2  0
  7  8  1  0
  5  9  1  0
  8  2  1  0
  9  2  1  0
  1 10  1  0
  3 11  1  0
  4 12  1  0
  5 13  1  0
  6 14  1  0
  7 15  1  0
  8 16  1  0
  8 17  1  0
  9 18  1  0
  9 19  1  0
M  END
