
     RDKit          3D

 21 22  0  0  0  0  0  0  0  0999 V2000
    2.3050   -0.9937   -0.8092 O   0  0  0  0  0  0  0  0  0  0  0  0
    1.1207   -0.4827   -0.1954 C   0  0  0  0  0  0  0  0  0  0  0  0
    0.0396   -1.4679   -0.2990 C   0  0  0  0  0  0  0  0  0  0  0  0
   -1.2099   -1.2277    0.4790 C   0  0  0  0  0  0  0  0  0  0  0  0
   -1.9720   -0.1801   -0.2600 C   0  0  0  0  0  0  0  0  0  0  0  0
   -1.5616    1.0538   -0.5011 C   0  0  0  0  0  0  0  0  0  0  0  0
   -0.2935    1.6578   -0.1053 C   0  0  0  0  0  0  0  0  0  0  0  0
    0.9468    0.9177   -0.2245 C   0  0  0  0  0  0  0  0  0  0  0  0
    1.4134    0.2103    1.0923 C   0  0  0  0  0  0  0  0  0  0  0  0
    2.8730   -0.2461   -1.1318 H   0  0  0  0  0  0  0  0  0  0  0  0
   -0.2663   -1.5481   -1.3840 H   0  0  0  0  0  0  0  0  0  0  0  0
    0.4204   -2.4758   -0.0396 H   0  0  0  0  0  0  0  0  0  0  0  0
   -1.0327   -0.9367    1.5334 H   0  0  0  0  0  0  0  0  0  0  0  0
   -1.7816   -2.1830    0.5209 H   0  0  0  0  0  0  0  0  0  0  0  0
   -2.9355   -0.4670   -0.6216 H   0  0  0  0  0  0  0  0  0  0  0  0
   -2.3086    1.6267   -1.0645 H   0  0  0  0  0  0  0  0  0  0  0  0
   -0.2600    2.6527   -0.6488 H   0  0  0  0  0  0  0  0  0  0  0  0
   -0.4212    1.9893    0.9706 H   0  0  0  0  0  0  0  0  0  0  0  0
    1.7979    1.5389   -0.6531 H   0  0  0  0  0  0  0  0  0  0  0  0
    0.6825    0.2001    1.9216 H   0  0  0  0  0  0  0  0  0  0  0  0
    2.4435    0.3614    1.4200 H   0  0  0  0  0  0  0  0  0  0  0  0
  1  2  1  0
  2  3  1  0
  3  4  1  0
  4  5  1  0
  5  6  2  0
  6  7  1  0
  7  8  1  0
  8  9  1  0
  8  2  1  0
  9  2  1  0
  1 10  1  0
  3 11  1  0
  3 12  1  0
  4 13  1  0
  4 14  1  0
  5 15  1  0
  6 16  1  0
  7 17  1  0
  7 18  1  0
  8 19  1  0
  9 20  1  0
  9 21  1  0
M  END
