
     RDKit          3D

 19 21  0  0  0  0  0  0  0  0999 V2000
    2.5414   -0.6896   -0.0019 O   0  0  0  0  0  0  0  0  0  0  0  0
    1.2425   -0.2223   -0.0340 C   0  0  0  0  0  0  0  0  0  0  0  0
    1.1346    1.2411    0.4262 C   0  0  0  0  0  0  0  0  0  0  0  0
    0.0378    1.8315   -0.1076 O   0  0  0  0  0  0  0  0  0  0  0  0
   -1.1238    1.1622   -0.1558 C   0  0  0  0  0  0  0  0  0  0  0  0
   -1.1758   -0.2273    0.3243 C   0  0  0  0  0  0  0  0  0  0  0  0
   -1.1508   -1.2445   -0.8319 C   0  0  0  0  0  0  0  0  0  0  0  0
    0.2824   -0.7881   -1.0327 C   0  0  0  0  0  0  0  0  0  0  0  0
    0.1687   -0.9030    0.4395 C   0  0  0  0  0  0  0  0  0  0  0  0
    3.0162   -0.4094   -0.8233 H   0  0  0  0  0  0  0  0  0  0  0  0
    2.0347    1.8063    0.2106 H   0  0  0  0  0  0  0  0  0  0  0  0
    1.0065    1.1976    1.5388 H   0  0  0  0  0  0  0  0  0  0  0  0
   -1.5061    1.1862   -1.2198 H   0  0  0  0  0  0  0  0  0  0  0  0
   -1.9027    1.7555    0.4094 H   0  0  0  0  0  0  0  0  0  0  0  0
   -1.8412   -0.4946    1.1429 H   0  0  0  0  0  0  0  0  0  0  0  0
   -1.1880   -2.2657   -0.4017 H   0  0  0  0  0  0  0  0  0  0  0  0
   -1.9045   -0.9765   -1.5438 H   0  0  0  0  0  0  0  0  0  0  0  0
    0.2452    0.0036   -1.7575 H   0  0  0  0  0  0  0  0  0  0  0  0
    0.0829   -1.9629    0.7812 H   0  0  0  0  0  0  0  0  0  0  0  0
  1  2  1  0
  2  3  1  0
  3  4  1  0
  4  5  1  0
  5  6  1  0
  6  7  1  0
  7  8  1  0
  8  9  1  0
  8  2  1  0
  9  2  1  0
  9  6  1  0
  1 10  1  0
  3 11  1  0
  3 12  1  0
  5 13  1  0
  5 14  1  0
  6 15  1  0
  7 16  1  0
  7 17  1  0
  8 18  1  0
  9 19  1  0
M  END
