
     RDKit          2D

 21 23  0  0  0  0  0  0  0  0999 V2000
    1.4041    1.8107    0.0000 O   0  0  0  0  0  0  0  0  0  0  0  0
   -0.0448    2.1989    0.0000 C   0  0  0  0  0  0  0  0  0  0  0  0
    0.3434    3.6478    0.0000 C   0  0  0  0  0  0  0  0  0  0  0  0
   -1.1054    4.0360    0.0000 C   0  0  0  0  0  0  0  0  0  0  0  0
   -1.4937    2.5871    0.0000 C   0  0  0  0  0  0  0  0  0  0  0  0
   -1.8819    1.1382    0.0000 C   0  0  0  0  0  0  0  0  0  0  0  0
   -0.4330    0.7500    0.0000 C   0  0  0  0  0  0  0  0  0  0  0  0
    0.8660    0.0000    0.0000 C   0  0  0  0  0  0  0  0  0  0  0  0
   -0.4330   -0.7500    0.0000 C   0  0  0  0  0  0  0  0  0  0  0  0
    2.5861    2.7341    0.0000 H   0  0  0  0  0  0  0  0  0  0  0  0
    0.7317    5.0967    0.0000 H   0  0  0  0  0  0  0  0  0  0  0  0
    1.8289    3.4391    0.0000 H   0  0  0  0  0  0  0  0  0  0  0  0
   -2.5543    4.4242    0.0000 H   0  0  0  0  0  0  0  0  0  0  0  0
   -0.7172    5.4849    0.0000 H   0  0  0  0  0  0  0  0  0  0  0  0
   -2.9426    2.9753    0.0000 H   0  0  0  0  0  0  0  0  0  0  0  0
   -2.4438   -0.2525    0.0000 H   0  0  0  0  0  0  0  0  0  0  0  0
   -3.3308    1.5265    0.0000 H   0  0  0  0  0  0  0  0  0  0  0  0
    2.0796    0.8816    0.0000 H   0  0  0  0  0  0  0  0  0  0  0  0
    1.8302   -1.1491    0.0000 H   0  0  0  0  0  0  0  0  0  0  0  0
    0.0800   -2.1595    0.0000 H   0  0  0  0  0  0  0  0  0  0  0  0
   -1.8675   -1.1886    0.0000 H   0  0  0  0  0  0  0  0  0  0  0  0
  1  2  1  0
  2  3  1  0
  3  4  1  0
  4  5  1  0
  5  6  1  0
  6  7  1  0
  7  8  1  0
  8  9  1  0
  5  2  1  0
  9  7  1  0
  7  2  1  0
  1 10  1  0
  3 11  1  0
  3 12  1  0
  4 13  1  0
  4 14  1  0
  5 15  1  0
  6 16  1  0
  6 17  1  0
  8 18  1  0
  8 19  1  0
  9 20  1  0
  9 21  1  0
M  END
