
     RDKit          3D

 17 19  0  0  0  0  0  0  0  0999 V2000
   -0.0543   -1.1638    1.9928 O   0  0  0  0  0  0  0  0  0  0  0  0
    0.0351   -0.4967    0.8125 C   0  0  0  0  0  0  0  0  0  0  0  0
   -0.3317    0.9533    0.6774 C   0  0  0  0  0  0  0  0  0  0  0  0
    0.8671    1.5363    0.0333 C   0  0  0  0  0  0  0  0  0  0  0  0
    1.6421    0.5872   -0.4646 C   0  0  0  0  0  0  0  0  0  0  0  0
    1.0505   -0.7534   -0.2113 C   0  0  0  0  0  0  0  0  0  0  0  0
   -0.3564   -1.0598   -0.4939 C   0  0  0  0  0  0  0  0  0  0  0  0
   -1.3188   -0.0656   -1.0533 C   0  0  0  0  0  0  0  0  0  0  0  0
   -1.3884    1.0234   -0.2216 O   0  0  0  0  0  0  0  0  0  0  0  0
   -0.9818   -1.2906    2.3055 H   0  0  0  0  0  0  0  0  0  0  0  0
   -0.6063    1.4152    1.6259 H   0  0  0  0  0  0  0  0  0  0  0  0
    1.0726    2.5873   -0.0187 H   0  0  0  0  0  0  0  0  0  0  0  0
    2.5760    0.7780   -0.9826 H   0  0  0  0  0  0  0  0  0  0  0  0
    1.7597   -1.5897   -0.1809 H   0  0  0  0  0  0  0  0  0  0  0  0
   -0.6278   -2.1167   -0.6414 H   0  0  0  0  0  0  0  0  0  0  0  0
   -1.0049    0.1853   -2.0983 H   0  0  0  0  0  0  0  0  0  0  0  0
   -2.3328   -0.5297   -1.0808 H   0  0  0  0  0  0  0  0  0  0  0  0
  1  2  1  0
  2  3  1  0
  3  4  1  0
  4  5  2  0
  5  6  1  0
  6  7  1  0
  7  8  1  0
  8  9  1  0
  6  2  1  0
  7  2  1  0
  9  3  1  0
  1 10  1  0
  3 11  1  0
  4 12  1  0
  5 13  1  0
  6 14  1  0
  7 15  1  0
  8 16  1  0
  8 17  1  0
M  END
