
     RDKit          3D

 16 18  0  0  0  0  0  0  0  0999 V2000
    0.9620    1.6180    0.0898 O   0  0  0  0  0  0  0  0  0  0  0  0
    0.3183    0.5747   -0.3356 C   0  0  0  0  0  0  0  0  0  0  0  0
    0.5241   -0.8042    0.6537 C   0  0  0  0  0  0  0  0  0  0  0  0
   -0.6987   -0.8638    1.1116 C   0  0  0  0  0  0  0  0  0  0  0  0
   -1.5614    0.1770    0.5177 C   0  0  0  0  0  0  0  0  0  0  0  0
   -0.8534    0.1860   -0.8778 C   0  0  0  0  0  0  0  0  0  0  0  0
    0.5302   -0.3666   -1.2759 C   0  0  0  0  0  0  0  0  0  0  0  0
    1.7033   -0.5074   -0.1518 C   0  0  0  0  0  0  0  0  0  0  0  0
    0.6067    2.1974    0.7837 H   0  0  0  0  0  0  0  0  0  0  0  0
   -1.0339   -1.5856    1.8339 H   0  0  0  0  0  0  0  0  0  0  0  0
   -2.5982   -0.1104    0.3961 H   0  0  0  0  0  0  0  0  0  0  0  0
   -1.3480    1.1447    0.9638 H   0  0  0  0  0  0  0  0  0  0  0  0
   -1.3654    0.6405   -1.7148 H   0  0  0  0  0  0  0  0  0  0  0  0
    0.2884   -1.4085   -1.4848 H   0  0  0  0  0  0  0  0  0  0  0  0
    2.1591    0.4520   -0.0938 H   0  0  0  0  0  0  0  0  0  0  0  0
    2.3669   -1.3435   -0.4155 H   0  0  0  0  0  0  0  0  0  0  0  0
  1  2  1  0
  2  3  1  0
  3  4  2  0
  4  5  1  0
  5  6  1  0
  6  7  1  0
  7  8  1  0
  6  2  1  0
  7  2  1  0
  8  3  1  0
  1  9  1  0
  4 10  1  0
  5 11  1  0
  5 12  1  0
  6 13  1  0
  7 14  1  0
  8 15  1  0
  8 16  1  0
M  END
