
     RDKit          3D

 19 21  0  0  0  0  0  0  0  0999 V2000
   -0.7559    1.0644   -1.0917 O   0  0  0  0  0  0  0  0  0  0  0  0
   -1.0070   -0.0777   -0.4018 C   0  0  0  0  0  0  0  0  0  0  0  0
   -2.4674   -0.5256   -0.2070 C   0  0  0  0  0  0  0  0  0  0  0  0
   -1.7555    0.0715    0.9325 C   0  0  0  0  0  0  0  0  0  0  0  0
   -0.7585   -0.6898    1.5445 O   0  0  0  0  0  0  0  0  0  0  0  0
   -0.0262   -0.8589    0.3469 C   0  0  0  0  0  0  0  0  0  0  0  0
    1.3613   -0.4052    0.5223 C   0  0  0  0  0  0  0  0  0  0  0  0
    2.2091   -0.1828   -0.7062 C   0  0  0  0  0  0  0  0  0  0  0  0
    1.8514    0.9545    0.2853 C   0  0  0  0  0  0  0  0  0  0  0  0
   -1.6037    1.5366   -1.2718 H   0  0  0  0  0  0  0  0  0  0  0  0
   -3.2581    0.0903   -0.6746 H   0  0  0  0  0  0  0  0  0  0  0  0
   -2.6535   -1.6176   -0.2827 H   0  0  0  0  0  0  0  0  0  0  0  0
   -1.9804    1.0745    1.2832 H   0  0  0  0  0  0  0  0  0  0  0  0
   -0.0641   -1.9548    0.0998 H   0  0  0  0  0  0  0  0  0  0  0  0
    1.9265   -0.9751    1.3204 H   0  0  0  0  0  0  0  0  0  0  0  0
    1.7321   -0.1391   -1.7047 H   0  0  0  0  0  0  0  0  0  0  0  0
    3.2621   -0.4709   -0.7258 H   0  0  0  0  0  0  0  0  0  0  0  0
    2.7141    1.3442    0.8994 H   0  0  0  0  0  0  0  0  0  0  0  0
    1.2739    1.7615   -0.1680 H   0  0  0  0  0  0  0  0  0  0  0  0
  1  2  1  0
  2  3  1  0
  3  4  1  0
  4  5  1  0
  5  6  1  0
  6  7  1  0
  7  8  1  0
  8  9  1  0
  4  2  1  0
  9  7  1  0
  6  2  1  0
  1 10  1  0
  3 11  1  0
  3 12  1  0
  4 13  1  0
  6 14  1  0
  7 15  1  0
  8 16  1  0
  8 17  1  0
  9 18  1  0
  9 19  1  0
M  END
