
     RDKit          3D

 19 21  0  0  0  0  0  0  0  0999 V2000
   -0.9716    0.8168    1.5570 O   0  0  0  0  0  0  0  0  0  0  0  0
   -0.7833    0.0958    0.4681 C   0  0  0  0  0  0  0  0  0  0  0  0
   -1.8987   -0.6167   -0.2236 C   0  0  0  0  0  0  0  0  0  0  0  0
   -1.1949   -1.1552   -1.3317 O   0  0  0  0  0  0  0  0  0  0  0  0
    0.0983   -0.7935   -1.0822 C   0  0  0  0  0  0  0  0  0  0  0  0
   -0.0298    0.6920   -0.7154 C   0  0  0  0  0  0  0  0  0  0  0  0
    1.2786    1.0928   -0.1255 C   0  0  0  0  0  0  0  0  0  0  0  0
    1.6180   -0.2154    0.6191 C   0  0  0  0  0  0  0  0  0  0  0  0
    0.3220   -0.9435    0.4205 C   0  0  0  0  0  0  0  0  0  0  0  0
   -1.4220    1.6662    1.3513 H   0  0  0  0  0  0  0  0  0  0  0  0
   -2.7177    0.0198   -0.5513 H   0  0  0  0  0  0  0  0  0  0  0  0
   -2.2175   -1.4808    0.3914 H   0  0  0  0  0  0  0  0  0  0  0  0
    0.8929   -1.0653   -1.7330 H   0  0  0  0  0  0  0  0  0  0  0  0
   -0.5552    1.3208   -1.3855 H   0  0  0  0  0  0  0  0  0  0  0  0
    1.1001    1.9177    0.6096 H   0  0  0  0  0  0  0  0  0  0  0  0
    2.0541    1.3330   -0.8633 H   0  0  0  0  0  0  0  0  0  0  0  0
    2.4031   -0.7719    0.0671 H   0  0  0  0  0  0  0  0  0  0  0  0
    1.8662   -0.0193    1.6661 H   0  0  0  0  0  0  0  0  0  0  0  0
    0.1575   -1.8931    0.8614 H   0  0  0  0  0  0  0  0  0  0  0  0
  1  2  1  0
  2  3  1  0
  3  4  1  0
  4  5  1  0
  5  6  1  0
  6  7  1  0
  7  8  1  0
  8  9  1  0
  6  2  1  0
  9  2  1  0
  9  5  1  0
  1 10  1  0
  3 11  1  0
  3 12  1  0
  5 13  1  0
  6 14  1  0
  7 15  1  0
  7 16  1  0
  8 17  1  0
  8 18  1  0
  9 19  1  0
M  END
