
     RDKit          3D

 17 19  0  0  0  0  0  0  0  0999 V2000
   -1.6486   -0.0310    1.6755 O   0  0  0  0  0  0  0  0  0  0  0  0
   -0.8508   -0.0796    0.5761 C   0  0  0  0  0  0  0  0  0  0  0  0
   -0.7775    1.0680   -0.4051 C   0  0  0  0  0  0  0  0  0  0  0  0
    0.5854    1.6201   -0.2448 C   0  0  0  0  0  0  0  0  0  0  0  0
    1.6182    0.8127   -0.1522 C   0  0  0  0  0  0  0  0  0  0  0  0
    1.4299   -0.6464   -0.2087 C   0  0  0  0  0  0  0  0  0  0  0  0
    0.0957   -1.1282    0.2432 C   0  0  0  0  0  0  0  0  0  0  0  0
   -1.0986   -0.8828   -0.6174 C   0  0  0  0  0  0  0  0  0  0  0  0
   -0.9957    0.2195   -1.4821 O   0  0  0  0  0  0  0  0  0  0  0  0
   -2.0089   -0.9105    1.9480 H   0  0  0  0  0  0  0  0  0  0  0  0
   -1.5966    1.8044   -0.3447 H   0  0  0  0  0  0  0  0  0  0  0  0
    0.7266    2.6809   -0.2046 H   0  0  0  0  0  0  0  0  0  0  0  0
    2.6493    1.2121   -0.0298 H   0  0  0  0  0  0  0  0  0  0  0  0
    2.2502   -1.1212    0.3874 H   0  0  0  0  0  0  0  0  0  0  0  0
    1.5285   -0.9627   -1.2843 H   0  0  0  0  0  0  0  0  0  0  0  0
    0.0133   -2.0704    0.8337 H   0  0  0  0  0  0  0  0  0  0  0  0
   -1.9204   -1.5848   -0.6900 H   0  0  0  0  0  0  0  0  0  0  0  0
  1  2  1  0
  2  3  1  0
  3  4  1  0
  4  5  2  0
  5  6  1  0
  6  7  1  0
  7  8  1  0
  8  9  1  0
  7  2  1  0
  8  2  1  0
  9  3  1  0
  1 10  1  0
  3 11  1  0
  4 12  1  0
  5 13  1  0
  6 14  1  0
  6 15  1  0
  7 16  1  0
  8 17  1  0
M  END
