
     RDKit          3D

 15 18  0  0  0  0  0  0  0  0999 V2000
    1.9884   -0.2014   -1.0854 O   0  0  0  0  0  0  0  0  0  0  0  0
    0.7992   -0.0358   -0.5246 C   0  0  0  0  0  0  0  0  0  0  0  0
   -0.4476   -0.7946   -0.8334 C   0  0  0  0  0  0  0  0  0  0  0  0
   -1.2878    0.2728   -1.2360 O   0  0  0  0  0  0  0  0  0  0  0  0
   -1.1908    1.0540   -0.0650 C   0  0  0  0  0  0  0  0  0  0  0  0
   -1.6712    0.1083    0.8637 O   0  0  0  0  0  0  0  0  0  0  0  0
   -0.7208   -0.9125    0.6182 C   0  0  0  0  0  0  0  0  0  0  0  0
    0.5439   -0.1526    0.8968 C   0  0  0  0  0  0  0  0  0  0  0  0
    0.3000    1.1244    0.2288 C   0  0  0  0  0  0  0  0  0  0  0  0
    2.6672   -0.6157   -0.4676 H   0  0  0  0  0  0  0  0  0  0  0  0
   -0.4165   -1.6533   -1.4650 H   0  0  0  0  0  0  0  0  0  0  0  0
   -1.7062    1.9790   -0.0870 H   0  0  0  0  0  0  0  0  0  0  0  0
   -0.8850   -1.8571    1.0809 H   0  0  0  0  0  0  0  0  0  0  0  0
    1.2184   -0.3681    1.6907 H   0  0  0  0  0  0  0  0  0  0  0  0
    0.8090    2.0526    0.3849 H   0  0  0  0  0  0  0  0  0  0  0  0
  1  2  1  0
  2  3  1  0
  3  4  1  0
  4  5  1  0
  5  6  1  0
  6  7  1  0
  7  8  1  0
  8  9  1  0
  8  2  1  0
  9  2  1  0
  7  3  1  0
  9  5  1  0
  1 10  1  0
  3 11  1  0
  5 12  1  0
  7 13  1  0
  8 14  1  0
  9 15  1  0
M  END
