
     RDKit          3D

 21 22  0  0  0  0  0  0  0  0999 V2000
   -0.2912   -0.1979   -1.6896 O   0  0  0  0  0  0  0  0  0  0  0  0
    0.1789    0.5214   -0.6058 C   0  0  0  0  0  0  0  0  0  0  0  0
    1.5486    0.9228   -0.6704 C   0  0  0  0  0  0  0  0  0  0  0  0
    2.2916   -0.0759   -0.1971 C   0  0  0  0  0  0  0  0  0  0  0  0
    1.3655   -1.2160    0.2122 C   0  0  0  0  0  0  0  0  0  0  0  0
    0.2394   -0.3541    0.6679 C   0  0  0  0  0  0  0  0  0  0  0  0
   -1.1198   -0.8303    0.7447 C   0  0  0  0  0  0  0  0  0  0  0  0
   -1.9324    0.3694    0.2279 C   0  0  0  0  0  0  0  0  0  0  0  0
   -0.8821    1.4421   -0.1254 C   0  0  0  0  0  0  0  0  0  0  0  0
   -0.5998   -1.0958   -1.5152 H   0  0  0  0  0  0  0  0  0  0  0  0
    2.0083    1.8581   -1.0266 H   0  0  0  0  0  0  0  0  0  0  0  0
    3.3666   -0.1550   -0.0845 H   0  0  0  0  0  0  0  0  0  0  0  0
    1.7782   -1.7686    1.0601 H   0  0  0  0  0  0  0  0  0  0  0  0
    1.0936   -1.8232   -0.6481 H   0  0  0  0  0  0  0  0  0  0  0  0
    0.5518    0.2856    1.4958 H   0  0  0  0  0  0  0  0  0  0  0  0
   -1.4416   -0.9450    1.8205 H   0  0  0  0  0  0  0  0  0  0  0  0
   -1.3781   -1.7578    0.2423 H   0  0  0  0  0  0  0  0  0  0  0  0
   -2.6654    0.7239    0.9347 H   0  0  0  0  0  0  0  0  0  0  0  0
   -2.3364    0.0361   -0.7527 H   0  0  0  0  0  0  0  0  0  0  0  0
   -0.5229    1.9426    0.8004 H   0  0  0  0  0  0  0  0  0  0  0  0
   -1.2531    2.1175   -0.8913 H   0  0  0  0  0  0  0  0  0  0  0  0
  1  2  1  0
  2  3  1  0
  3  4  2  0
  4  5  1  0
  5  6  1  0
  6  7  1  0
  7  8  1  0
  8  9  1  0
  6  2  1  0
  9  2  1  0
  1 10  1  0
  3 11  1  0
  4 12  1  0
  5 13  1  0
  5 14  1  0
  6 15  1  0
  7 16  1  0
  7 17  1  0
  8 18  1  0
  8 19  1  0
  9 20  1  0
  9 21  1  0
M  END
