
     RDKit          3D

 16 18  0  0  0  0  0  0  0  0999 V2000
    2.2419    0.6409    0.2763 O   0  0  0  0  0  0  0  0  0  0  0  0
    0.9329    0.3655    0.0751 C   0  0  0  0  0  0  0  0  0  0  0  0
    0.5178   -0.8930   -0.7044 C   0  0  0  0  0  0  0  0  0  0  0  0
   -0.9874   -0.5920   -0.7253 C   0  0  0  0  0  0  0  0  0  0  0  0
   -1.2181   -0.3789    0.7552 C   0  0  0  0  0  0  0  0  0  0  0  0
   -0.1649    0.7184    0.9746 C   0  0  0  0  0  0  0  0  0  0  0  0
   -0.0809    1.3462   -0.3489 C   0  0  0  0  0  0  0  0  0  0  0  0
   -0.9949    0.6872   -1.2092 O   0  0  0  0  0  0  0  0  0  0  0  0
    2.7486   -0.2276    0.2889 H   0  0  0  0  0  0  0  0  0  0  0  0
    0.7533   -1.8086   -0.1694 H   0  0  0  0  0  0  0  0  0  0  0  0
    0.8598   -0.8381   -1.7403 H   0  0  0  0  0  0  0  0  0  0  0  0
   -1.5836   -1.3276   -1.1985 H   0  0  0  0  0  0  0  0  0  0  0  0
   -2.2204   -0.0514    1.0084 H   0  0  0  0  0  0  0  0  0  0  0  0
   -0.8471   -1.2578    1.3000 H   0  0  0  0  0  0  0  0  0  0  0  0
   -0.0834    1.2117    1.9241 H   0  0  0  0  0  0  0  0  0  0  0  0
    0.1262    2.4052   -0.5066 H   0  0  0  0  0  0  0  0  0  0  0  0
  1  2  1  0
  2  3  1  0
  3  4  1  0
  4  5  1  0
  5  6  1  0
  6  7  1  0
  7  8  1  0
  6  2  1  0
  7  2  1  0
  8  4  1  0
  1  9  1  0
  3 10  1  0
  3 11  1  0
  4 12  1  0
  5 13  1  0
  5 14  1  0
  6 15  1  0
  7 16  1  0
M  END
