
     RDKit          3D

 21 23  0  0  0  0  0  0  0  0999 V2000
    1.9725   -1.0994   -0.7873 O   0  0  0  0  0  0  0  0  0  0  0  0
    1.1385   -0.0047   -0.5608 C   0  0  0  0  0  0  0  0  0  0  0  0
    1.6580    1.1482    0.1557 C   0  0  0  0  0  0  0  0  0  0  0  0
    0.7701    0.2788    0.9301 C   0  0  0  0  0  0  0  0  0  0  0  0
   -0.6927    0.5685    0.9299 C   0  0  0  0  0  0  0  0  0  0  0  0
   -1.4215   -0.7653    0.8394 C   0  0  0  0  0  0  0  0  0  0  0  0
   -0.9182   -1.2878   -0.4897 C   0  0  0  0  0  0  0  0  0  0  0  0
   -0.2061   -0.1080   -1.1680 C   0  0  0  0  0  0  0  0  0  0  0  0
   -0.9544    1.0467   -0.5052 C   0  0  0  0  0  0  0  0  0  0  0  0
    2.9000   -0.9353   -0.4410 H   0  0  0  0  0  0  0  0  0  0  0  0
    2.7540    1.0894    0.4260 H   0  0  0  0  0  0  0  0  0  0  0  0
    1.3477    2.1925    0.0026 H   0  0  0  0  0  0  0  0  0  0  0  0
    1.1514   -0.4942    1.6285 H   0  0  0  0  0  0  0  0  0  0  0  0
   -1.0612    1.2325    1.6814 H   0  0  0  0  0  0  0  0  0  0  0  0
   -1.2164   -1.4228    1.6809 H   0  0  0  0  0  0  0  0  0  0  0  0
   -2.5275   -0.5886    0.7224 H   0  0  0  0  0  0  0  0  0  0  0  0
   -0.1394   -2.0644   -0.2339 H   0  0  0  0  0  0  0  0  0  0  0  0
   -1.7057   -1.7102   -1.1213 H   0  0  0  0  0  0  0  0  0  0  0  0
   -0.2766   -0.1217   -2.2381 H   0  0  0  0  0  0  0  0  0  0  0  0
   -0.5475    2.0187   -0.7196 H   0  0  0  0  0  0  0  0  0  0  0  0
   -2.0250    1.0272   -0.7319 H   0  0  0  0  0  0  0  0  0  0  0  0
  1  2  1  0
  2  3  1  0
  3  4  1  0
  4  5  1  0
  5  6  1  0
  6  7  1  0
  7  8  1  0
  8  9  1  0
  4  2  1  0
  9  5  1  0
  8  2  1  0
  1 10  1  0
  3 11  1  0
  3 12  1  0
  4 13  1  0
  5 14  1  0
  6 15  1  0
  6 16  1  0
  7 17  1  0
  7 18  1  0
  8 19  1  0
  9 20  1  0
  9 21  1  0
M  END
