
     RDKit          3D

 19 21  0  0  0  0  0  0  0  0999 V2000
   -2.6579    0.6798   -0.2166 O   0  0  0  0  0  0  0  0  0  0  0  0
   -1.3881    0.3509    0.2883 C   0  0  0  0  0  0  0  0  0  0  0  0
   -1.4346   -1.1478    0.7470 C   0  0  0  0  0  0  0  0  0  0  0  0
    0.0268   -1.0678    0.6965 C   0  0  0  0  0  0  0  0  0  0  0  0
    1.3378   -1.0423    0.6959 C   0  0  0  0  0  0  0  0  0  0  0  0
    2.0145   -0.0335   -0.2351 C   0  0  0  0  0  0  0  0  0  0  0  0
    1.1358    1.2262    0.1476 C   0  0  0  0  0  0  0  0  0  0  0  0
   -0.2766    0.9962   -0.3706 C   0  0  0  0  0  0  0  0  0  0  0  0
   -0.4107   -0.3835   -0.7030 C   0  0  0  0  0  0  0  0  0  0  0  0
   -2.6192    1.0209   -1.1312 H   0  0  0  0  0  0  0  0  0  0  0  0
   -1.9254   -1.2853    1.6992 H   0  0  0  0  0  0  0  0  0  0  0  0
   -1.8596   -1.7268   -0.0849 H   0  0  0  0  0  0  0  0  0  0  0  0
    1.9288   -1.6716    1.2964 H   0  0  0  0  0  0  0  0  0  0  0  0
    3.0076    0.2266    0.0724 H   0  0  0  0  0  0  0  0  0  0  0  0
    1.7962   -0.2754   -1.2584 H   0  0  0  0  0  0  0  0  0  0  0  0
    1.6558    2.0671   -0.3046 H   0  0  0  0  0  0  0  0  0  0  0  0
    1.1116    1.3259    1.2345 H   0  0  0  0  0  0  0  0  0  0  0  0
   -0.5024    1.7268   -1.2041 H   0  0  0  0  0  0  0  0  0  0  0  0
   -0.9403   -0.9864   -1.3694 H   0  0  0  0  0  0  0  0  0  0  0  0
  1  2  1  0
  2  3  1  0
  3  4  1  0
  4  5  2  0
  5  6  1  0
  6  7  1  0
  7  8  1  0
  8  9  1  0
  8  2  1  0
  9  2  1  0
  9  4  1  0
  1 10  1  0
  3 11  1  0
  3 12  1  0
  5 13  1  0
  6 14  1  0
  6 15  1  0
  7 16  1  0
  7 17  1  0
  8 18  1  0
  9 19  1  0
M  END
