
     RDKit          3D

 17 19  0  0  0  0  0  0  0  0999 V2000
    1.9671    1.4118   -0.8015 O   0  0  0  0  0  0  0  0  0  0  0  0
    1.2341    0.5035   -0.0079 C   0  0  0  0  0  0  0  0  0  0  0  0
    1.9649   -0.6696    0.4393 C   0  0  0  0  0  0  0  0  0  0  0  0
    0.9224   -0.8749   -0.6241 C   0  0  0  0  0  0  0  0  0  0  0  0
   -0.4394   -0.8360   -0.0673 C   0  0  0  0  0  0  0  0  0  0  0  0
   -1.5791   -0.8847   -0.7949 O   0  0  0  0  0  0  0  0  0  0  0  0
   -2.4042   -0.0536    0.0505 C   0  0  0  0  0  0  0  0  0  0  0  0
   -1.4485    1.1112    0.2332 C   0  0  0  0  0  0  0  0  0  0  0  0
   -0.2103    0.6708    0.0918 C   0  0  0  0  0  0  0  0  0  0  0  0
    2.2766    2.1111   -0.1711 H   0  0  0  0  0  0  0  0  0  0  0  0
    1.7653   -1.1566    1.4378 H   0  0  0  0  0  0  0  0  0  0  0  0
    2.9922   -0.8265    0.1050 H   0  0  0  0  0  0  0  0  0  0  0  0
    1.1680   -0.9358   -1.6773 H   0  0  0  0  0  0  0  0  0  0  0  0
   -0.4736   -1.3315    0.9383 H   0  0  0  0  0  0  0  0  0  0  0  0
   -2.6545   -0.5474    0.9808 H   0  0  0  0  0  0  0  0  0  0  0  0
   -3.2610    0.2015   -0.5754 H   0  0  0  0  0  0  0  0  0  0  0  0
   -1.8201    2.1065    0.4430 H   0  0  0  0  0  0  0  0  0  0  0  0
  1  2  1  0
  2  3  1  0
  3  4  1  0
  4  5  1  0
  5  6  1  0
  6  7  1  0
  7  8  1  0
  8  9  2  0
  4  2  1  0
  9  5  1  0
  9  2  1  0
  1 10  1  0
  3 11  1  0
  3 12  1  0
  4 13  1  0
  5 14  1  0
  7 15  1  0
  7 16  1  0
  8 17  1  0
M  END
