
     RDKit          3D

 19 21  0  0  0  0  0  0  0  0999 V2000
   -2.3111    1.3151    0.6375 O   0  0  0  0  0  0  0  0  0  0  0  0
   -1.4763    0.5460   -0.1936 C   0  0  0  0  0  0  0  0  0  0  0  0
   -2.1369   -0.5808   -0.8218 C   0  0  0  0  0  0  0  0  0  0  0  0
   -1.1586   -0.9002    0.2826 C   0  0  0  0  0  0  0  0  0  0  0  0
    0.2266   -0.7498   -0.1788 C   0  0  0  0  0  0  0  0  0  0  0  0
    1.4273   -0.8723    0.6615 C   0  0  0  0  0  0  0  0  0  0  0  0
    2.2544    0.2831    0.0245 C   0  0  0  0  0  0  0  0  0  0  0  0
    1.1483    1.3229   -0.0567 C   0  0  0  0  0  0  0  0  0  0  0  0
   -0.0270    0.7484   -0.1155 C   0  0  0  0  0  0  0  0  0  0  0  0
   -2.0824    2.2684    0.3980 H   0  0  0  0  0  0  0  0  0  0  0  0
   -1.8566   -0.9322   -1.8590 H   0  0  0  0  0  0  0  0  0  0  0  0
   -3.1691   -0.8283   -0.5810 H   0  0  0  0  0  0  0  0  0  0  0  0
   -1.4730   -1.0739    1.3003 H   0  0  0  0  0  0  0  0  0  0  0  0
    0.3424   -1.1132   -1.2261 H   0  0  0  0  0  0  0  0  0  0  0  0
    1.3065   -0.6581    1.7182 H   0  0  0  0  0  0  0  0  0  0  0  0
    1.9916   -1.7812    0.4146 H   0  0  0  0  0  0  0  0  0  0  0  0
    3.0669    0.5747    0.6735 H   0  0  0  0  0  0  0  0  0  0  0  0
    2.5227    0.0542   -1.0189 H   0  0  0  0  0  0  0  0  0  0  0  0
    1.4043    2.3772   -0.0591 H   0  0  0  0  0  0  0  0  0  0  0  0
  1  2  1  0
  2  3  1  0
  3  4  1  0
  4  5  1  0
  5  6  1  0
  6  7  1  0
  7  8  1  0
  8  9  2  0
  4  2  1  0
  9  5  1  0
  9  2  1  0
  1 10  1  0
  3 11  1  0
  3 12  1  0
  4 13  1  0
  5 14  1  0
  6 15  1  0
  6 16  1  0
  7 17  1  0
  7 18  1  0
  8 19  1  0
M  END
