
     RDKit          3D

 19 21  0  0  0  0  0  0  0  0999 V2000
    2.3815    0.6125   -1.3397 O   0  0  0  0  0  0  0  0  0  0  0  0
    1.5562    0.4108   -0.2020 C   0  0  0  0  0  0  0  0  0  0  0  0
    0.4818    1.3864   -0.1484 C   0  0  0  0  0  0  0  0  0  0  0  0
   -0.7267    0.9341    0.0187 C   0  0  0  0  0  0  0  0  0  0  0  0
   -2.2272    0.6680    0.2030 C   0  0  0  0  0  0  0  0  0  0  0  0
   -1.9243   -0.7997   -0.2479 C   0  0  0  0  0  0  0  0  0  0  0  0
   -0.5936   -0.5409    0.3680 C   0  0  0  0  0  0  0  0  0  0  0  0
    0.6852   -0.8956   -0.2428 C   0  0  0  0  0  0  0  0  0  0  0  0
    1.8563   -0.7006    0.6761 C   0  0  0  0  0  0  0  0  0  0  0  0
    3.0951    1.2243   -1.0495 H   0  0  0  0  0  0  0  0  0  0  0  0
    0.6819    2.4781   -0.2454 H   0  0  0  0  0  0  0  0  0  0  0  0
   -2.8681    1.1177   -0.5384 H   0  0  0  0  0  0  0  0  0  0  0  0
   -2.5563    0.7186    1.2388 H   0  0  0  0  0  0  0  0  0  0  0  0
   -2.4983   -1.5361    0.3437 H   0  0  0  0  0  0  0  0  0  0  0  0
   -1.9980   -0.9598   -1.3144 H   0  0  0  0  0  0  0  0  0  0  0  0
   -0.5928   -0.7006    1.4780 H   0  0  0  0  0  0  0  0  0  0  0  0
    0.7880   -1.4439   -1.1785 H   0  0  0  0  0  0  0  0  0  0  0  0
    1.6736   -0.6945    1.7640 H   0  0  0  0  0  0  0  0  0  0  0  0
    2.7855   -1.2788    0.4167 H   0  0  0  0  0  0  0  0  0  0  0  0
  1  2  1  0
  2  3  1  0
  3  4  2  0
  4  5  1  0
  5  6  1  0
  6  7  1  0
  7  8  1  0
  8  9  1  0
  8  2  1  0
  9  2  1  0
  7  4  1  0
  1 10  1  0
  3 11  1  0
  5 12  1  0
  5 13  1  0
  6 14  1  0
  6 15  1  0
  7 16  1  0
  8 17  1  0
  9 18  1  0
  9 19  1  0
M  END
