
     RDKit          3D

 20 21  0  0  0  0  0  0  0  0999 V2000
    2.3994   -0.0672   -0.6896 O   0  0  0  0  0  0  0  0  0  0  0  0
    1.1625    0.0116   -0.0162 C   0  0  0  0  0  0  0  0  0  0  0  0
    0.5329    1.3602   -0.1312 C   0  0  0  0  0  0  0  0  0  0  0  0
   -0.7545    1.1752   -0.9467 C   0  0  0  0  0  0  0  0  0  0  0  0
   -1.6765    0.4093    0.0106 C   0  0  0  0  0  0  0  0  0  0  0  0
   -1.1503   -0.9846    0.1004 C   0  0  0  0  0  0  0  0  0  0  0  0
    0.3011   -1.1406   -0.0404 C   0  0  0  0  0  0  0  0  0  0  0  0
    1.1026   -0.7892    1.2303 C   0  0  0  0  0  0  0  0  0  0  0  0
    2.7277   -0.9723   -0.7805 H   0  0  0  0  0  0  0  0  0  0  0  0
    1.1365    2.0967   -0.7005 H   0  0  0  0  0  0  0  0  0  0  0  0
    0.2956    1.7478    0.8832 H   0  0  0  0  0  0  0  0  0  0  0  0
   -1.1828    2.1247   -1.2672 H   0  0  0  0  0  0  0  0  0  0  0  0
   -0.4677    0.4960   -1.7825 H   0  0  0  0  0  0  0  0  0  0  0  0
   -1.5990    0.9468    0.9997 H   0  0  0  0  0  0  0  0  0  0  0  0
   -2.7226    0.4785   -0.2887 H   0  0  0  0  0  0  0  0  0  0  0  0
   -1.4584   -1.3844    1.1100 H   0  0  0  0  0  0  0  0  0  0  0  0
   -1.7249   -1.6055   -0.6313 H   0  0  0  0  0  0  0  0  0  0  0  0
    0.6420   -2.0348   -0.6163 H   0  0  0  0  0  0  0  0  0  0  0  0
    1.8780   -1.5110    1.4775 H   0  0  0  0  0  0  0  0  0  0  0  0
    0.5584   -0.3573    2.0794 H   0  0  0  0  0  0  0  0  0  0  0  0
  1  2  1  0
  2  3  1  0
  3  4  1  0
  4  5  1  0
  5  6  1  0
  6  7  1  0
  7  8  1  0
  7  2  1  0
  8  2  1  0
  1  9  1  0
  3 10  1  0
  3 11  1  0
  4 12  1  0
  4 13  1  0
  5 14  1  0
  5 15  1  0
  6 16  1  0
  6 17  1  0
  7 18  1  0
  8 19  1  0
  8 20  1  0
M  END
