
     RDKit          3D

 17 19  0  0  0  0  0  0  0  0999 V2000
    2.2808   -0.9928   -0.3166 O   0  0  0  0  0  0  0  0  0  0  0  0
    0.9944   -0.4661   -0.2998 C   0  0  0  0  0  0  0  0  0  0  0  0
   -0.1742   -1.4158   -0.4533 C   0  0  0  0  0  0  0  0  0  0  0  0
   -1.0171   -1.2740    0.6345 O   0  0  0  0  0  0  0  0  0  0  0  0
   -1.7277   -0.0671    0.5602 C   0  0  0  0  0  0  0  0  0  0  0  0
   -0.7748    1.0748    0.3485 C   0  0  0  0  0  0  0  0  0  0  0  0
   -0.4643    1.3642   -0.9765 O   0  0  0  0  0  0  0  0  0  0  0  0
    0.8255    0.8906   -0.8463 C   0  0  0  0  0  0  0  0  0  0  0  0
    0.6344    0.6401    0.5860 C   0  0  0  0  0  0  0  0  0  0  0  0
    2.8520   -0.5021    0.3143 H   0  0  0  0  0  0  0  0  0  0  0  0
    0.2125   -2.4443   -0.4963 H   0  0  0  0  0  0  0  0  0  0  0  0
   -0.7603   -1.1873   -1.3582 H   0  0  0  0  0  0  0  0  0  0  0  0
   -2.5096   -0.1381   -0.2289 H   0  0  0  0  0  0  0  0  0  0  0  0
   -2.1904    0.0634    1.5727 H   0  0  0  0  0  0  0  0  0  0  0  0
   -1.1119    1.9914    0.8551 H   0  0  0  0  0  0  0  0  0  0  0  0
    1.6808    1.4186   -1.2774 H   0  0  0  0  0  0  0  0  0  0  0  0
    1.2500    1.0444    1.3821 H   0  0  0  0  0  0  0  0  0  0  0  0
  1  2  1  0
  2  3  1  0
  3  4  1  0
  4  5  1  0
  5  6  1  0
  6  7  1  0
  7  8  1  0
  8  9  1  0
  8  2  1  0
  9  2  1  0
  9  6  1  0
  1 10  1  0
  3 11  1  0
  3 12  1  0
  5 13  1  0
  5 14  1  0
  6 15  1  0
  8 16  1  0
  9 17  1  0
M  END
