
     RDKit          3D

 19 21  0  0  0  0  0  0  0  0999 V2000
    0.3826   -2.4221   -1.0306 O   0  0  0  0  0  0  0  0  0  0  0  0
    0.6698   -1.1465   -0.4385 C   0  0  0  0  0  0  0  0  0  0  0  0
    2.0388   -0.6959   -0.7421 C   0  0  0  0  0  0  0  0  0  0  0  0
    0.9746   -0.0079   -1.4576 C   0  0  0  0  0  0  0  0  0  0  0  0
    0.2383    0.9835   -0.5263 C   0  0  0  0  0  0  0  0  0  0  0  0
   -0.3145    1.8687    0.2030 C   0  0  0  0  0  0  0  0  0  0  0  0
   -1.3733    1.4365    1.1501 C   0  0  0  0  0  0  0  0  0  0  0  0
   -0.9896   -0.0756    1.2302 C   0  0  0  0  0  0  0  0  0  0  0  0
   -0.5056   -0.3260   -0.1395 C   0  0  0  0  0  0  0  0  0  0  0  0
    0.1964   -3.0220   -0.2702 H   0  0  0  0  0  0  0  0  0  0  0  0
    2.5751   -0.0911    0.0532 H   0  0  0  0  0  0  0  0  0  0  0  0
    2.7186   -1.3301   -1.3059 H   0  0  0  0  0  0  0  0  0  0  0  0
    0.5489   -0.1978   -2.4203 H   0  0  0  0  0  0  0  0  0  0  0  0
   -0.0399    2.9451    0.1623 H   0  0  0  0  0  0  0  0  0  0  0  0
   -2.3852    1.5344    0.7682 H   0  0  0  0  0  0  0  0  0  0  0  0
   -1.1664    1.8684    2.1305 H   0  0  0  0  0  0  0  0  0  0  0  0
   -0.2792   -0.2243    2.0451 H   0  0  0  0  0  0  0  0  0  0  0  0
   -1.9544   -0.5802    1.4452 H   0  0  0  0  0  0  0  0  0  0  0  0
   -1.3349   -0.5173   -0.8568 H   0  0  0  0  0  0  0  0  0  0  0  0
  1  2  1  0
  2  3  1  0
  3  4  1  0
  4  5  1  0
  5  6  2  0
  6  7  1  0
  7  8  1  0
  8  9  1  0
  4  2  1  0
  9  5  1  0
  9  2  1  0
  1 10  1  0
  3 11  1  0
  3 12  1  0
  4 13  1  0
  6 14  1  0
  7 15  1  0
  7 16  1  0
  8 17  1  0
  8 18  1  0
  9 19  1  0
M  END
