
     RDKit          3D

 19 21  0  0  0  0  0  0  0  0999 V2000
    0.0790    0.4711    2.2291 O   0  0  0  0  0  0  0  0  0  0  0  0
    0.0410    0.1671    0.9165 C   0  0  0  0  0  0  0  0  0  0  0  0
    1.1467   -0.6035    0.3069 C   0  0  0  0  0  0  0  0  0  0  0  0
    1.6549    0.3155   -0.7382 C   0  0  0  0  0  0  0  0  0  0  0  0
    0.8091    1.3174   -0.9343 C   0  0  0  0  0  0  0  0  0  0  0  0
   -0.3732    1.2186   -0.0619 C   0  0  0  0  0  0  0  0  0  0  0  0
   -1.4533    0.2595   -0.5728 C   0  0  0  0  0  0  0  0  0  0  0  0
   -0.9463   -0.7627    0.3679 C   0  0  0  0  0  0  0  0  0  0  0  0
    0.1599   -1.5867   -0.2775 C   0  0  0  0  0  0  0  0  0  0  0  0
   -0.7755    0.6036    2.6637 H   0  0  0  0  0  0  0  0  0  0  0  0
    1.8546   -0.9810    1.0339 H   0  0  0  0  0  0  0  0  0  0  0  0
    2.6121    0.1452   -1.2529 H   0  0  0  0  0  0  0  0  0  0  0  0
    0.9802    2.1043   -1.6512 H   0  0  0  0  0  0  0  0  0  0  0  0
   -0.7898    2.1368    0.3437 H   0  0  0  0  0  0  0  0  0  0  0  0
   -2.4822    0.6179   -0.4307 H   0  0  0  0  0  0  0  0  0  0  0  0
   -1.2388    0.0453   -1.6391 H   0  0  0  0  0  0  0  0  0  0  0  0
   -1.6309   -1.2946    1.0121 H   0  0  0  0  0  0  0  0  0  0  0  0
    0.2433   -2.6184    0.0705 H   0  0  0  0  0  0  0  0  0  0  0  0
    0.1091   -1.5554   -1.3855 H   0  0  0  0  0  0  0  0  0  0  0  0
  1  2  1  0
  2  3  1  0
  3  4  1  0
  4  5  2  0
  5  6  1  0
  6  7  1  0
  7  8  1  0
  8  9  1  0
  6  2  1  0
  8  2  1  0
  9  3  1  0
  1 10  1  0
  3 11  1  0
  4 12  1  0
  5 13  1  0
  6 14  1  0
  7 15  1  0
  7 16  1  0
  8 17  1  0
  9 18  1  0
  9 19  1  0
M  END
