
     RDKit          3D

 19 21  0  0  0  0  0  0  0  0999 V2000
    2.3602    0.8657   -0.1475 O   0  0  0  0  0  0  0  0  0  0  0  0
    1.0570    0.4838    0.0365 C   0  0  0  0  0  0  0  0  0  0  0  0
    0.1200    1.5367    0.5120 C   0  0  0  0  0  0  0  0  0  0  0  0
   -1.1217    1.0955    0.8829 O   0  0  0  0  0  0  0  0  0  0  0  0
   -1.4633   -0.0885    0.2507 C   0  0  0  0  0  0  0  0  0  0  0  0
   -0.6155   -1.1845    0.8774 C   0  0  0  0  0  0  0  0  0  0  0  0
    0.7372   -0.8949    0.3632 C   0  0  0  0  0  0  0  0  0  0  0  0
    0.4899   -0.3959   -1.0357 C   0  0  0  0  0  0  0  0  0  0  0  0
   -0.9595   -0.1157   -1.1853 C   0  0  0  0  0  0  0  0  0  0  0  0
    2.9977    0.3119    0.3386 H   0  0  0  0  0  0  0  0  0  0  0  0
   -0.0243    2.3682   -0.2270 H   0  0  0  0  0  0  0  0  0  0  0  0
    0.5847    2.0273    1.4030 H   0  0  0  0  0  0  0  0  0  0  0  0
   -2.5283   -0.3144    0.2476 H   0  0  0  0  0  0  0  0  0  0  0  0
   -0.9714   -2.1411    0.3989 H   0  0  0  0  0  0  0  0  0  0  0  0
   -0.7298   -1.2599    1.9547 H   0  0  0  0  0  0  0  0  0  0  0  0
    1.5562   -1.6039    0.5644 H   0  0  0  0  0  0  0  0  0  0  0  0
    1.1064   -0.8235   -1.8225 H   0  0  0  0  0  0  0  0  0  0  0  0
   -1.0765    0.9165   -1.5811 H   0  0  0  0  0  0  0  0  0  0  0  0
   -1.5191   -0.7834   -1.8306 H   0  0  0  0  0  0  0  0  0  0  0  0
  1  2  1  0
  2  3  1  0
  3  4  1  0
  4  5  1  0
  5  6  1  0
  6  7  1  0
  7  8  1  0
  8  9  1  0
  7  2  1  0
  8  2  1  0
  9  5  1  0
  1 10  1  0
  3 11  1  0
  3 12  1  0
  5 13  1  0
  6 14  1  0
  6 15  1  0
  7 16  1  0
  8 17  1  0
  9 18  1  0
  9 19  1  0
M  END
