
     RDKit          3D

 21 22  0  0  0  0  0  0  0  0999 V2000
   -1.6868    0.0432    1.7591 O   0  0  0  0  0  0  0  0  0  0  0  0
   -0.9299   -0.0250    0.5747 C   0  0  0  0  0  0  0  0  0  0  0  0
   -0.3160    1.2747    0.2557 C   0  0  0  0  0  0  0  0  0  0  0  0
    0.7953    1.2434   -0.7406 C   0  0  0  0  0  0  0  0  0  0  0  0
    1.8000    0.2134   -0.3074 C   0  0  0  0  0  0  0  0  0  0  0  0
    1.1529   -1.1315   -0.2861 C   0  0  0  0  0  0  0  0  0  0  0  0
   -0.0399   -1.2036    0.5991 C   0  0  0  0  0  0  0  0  0  0  0  0
   -1.0640   -1.9406   -0.0410 O   0  0  0  0  0  0  0  0  0  0  0  0
   -1.6800   -0.7447   -0.4790 C   0  0  0  0  0  0  0  0  0  0  0  0
   -2.2973    0.7987    1.7607 H   0  0  0  0  0  0  0  0  0  0  0  0
    0.0869    1.7232    1.1936 H   0  0  0  0  0  0  0  0  0  0  0  0
   -1.1190    1.9889   -0.0858 H   0  0  0  0  0  0  0  0  0  0  0  0
    1.3211    2.2412   -0.6712 H   0  0  0  0  0  0  0  0  0  0  0  0
    0.4773    1.1455   -1.7865 H   0  0  0  0  0  0  0  0  0  0  0  0
    2.1110    0.4657    0.7280 H   0  0  0  0  0  0  0  0  0  0  0  0
    2.6469    0.1753   -1.0203 H   0  0  0  0  0  0  0  0  0  0  0  0
    1.9002   -1.8823    0.0862 H   0  0  0  0  0  0  0  0  0  0  0  0
    0.9248   -1.4329   -1.3233 H   0  0  0  0  0  0  0  0  0  0  0  0
    0.1830   -1.5927    1.6341 H   0  0  0  0  0  0  0  0  0  0  0  0
   -2.7822   -0.8720   -0.3222 H   0  0  0  0  0  0  0  0  0  0  0  0
   -1.4845   -0.4879   -1.5279 H   0  0  0  0  0  0  0  0  0  0  0  0
  1  2  1  0
  2  3  1  0
  3  4  1  0
  4  5  1  0
  5  6  1  0
  6  7  1  0
  7  8  1  0
  8  9  1  0
  7  2  1  0
  9  2  1  0
  1 10  1  0
  3 11  1  0
  3 12  1  0
  4 13  1  0
  4 14  1  0
  5 15  1  0
  5 16  1  0
  6 17  1  0
  6 18  1  0
  7 19  1  0
  9 20  1  0
  9 21  1  0
M  END
