
     RDKit          3D

 21 23  0  0  0  0  0  0  0  0999 V2000
   -0.0497    0.8262    1.9663 O   0  0  0  0  0  0  0  0  0  0  0  0
    0.0608    0.6508    0.6078 C   0  0  0  0  0  0  0  0  0  0  0  0
   -1.0161    1.2841   -0.2377 C   0  0  0  0  0  0  0  0  0  0  0  0
   -2.0574    0.1565   -0.2660 C   0  0  0  0  0  0  0  0  0  0  0  0
   -1.1624   -1.0189   -0.6583 C   0  0  0  0  0  0  0  0  0  0  0  0
    0.0531   -0.7911    0.1893 C   0  0  0  0  0  0  0  0  0  0  0  0
    1.3399   -0.5347   -0.5624 C   0  0  0  0  0  0  0  0  0  0  0  0
    2.5067   -0.1851    0.2603 C   0  0  0  0  0  0  0  0  0  0  0  0
    1.4131    0.8480   -0.0011 C   0  0  0  0  0  0  0  0  0  0  0  0
   -0.2665   -0.0422    2.4065 H   0  0  0  0  0  0  0  0  0  0  0  0
   -0.6558    1.4418   -1.2643 H   0  0  0  0  0  0  0  0  0  0  0  0
   -1.4178    2.2083    0.1806 H   0  0  0  0  0  0  0  0  0  0  0  0
   -2.4511   -0.0355    0.7440 H   0  0  0  0  0  0  0  0  0  0  0  0
   -2.8288    0.3486   -1.0273 H   0  0  0  0  0  0  0  0  0  0  0  0
   -1.6716   -1.9808   -0.4101 H   0  0  0  0  0  0  0  0  0  0  0  0
   -0.9127   -0.9996   -1.7282 H   0  0  0  0  0  0  0  0  0  0  0  0
    0.1050   -1.5410    0.9933 H   0  0  0  0  0  0  0  0  0  0  0  0
    1.3748   -0.7268   -1.6361 H   0  0  0  0  0  0  0  0  0  0  0  0
    3.4513    0.0293   -0.2736 H   0  0  0  0  0  0  0  0  0  0  0  0
    2.5274   -0.4968    1.3269 H   0  0  0  0  0  0  0  0  0  0  0  0
    1.6579    1.7181   -0.6099 H   0  0  0  0  0  0  0  0  0  0  0  0
  1  2  1  0
  2  3  1  0
  3  4  1  0
  4  5  1  0
  5  6  1  0
  6  7  1  0
  7  8  1  0
  8  9  1  0
  6  2  1  0
  9  7  1  0
  9  2  1  0
  1 10  1  0
  3 11  1  0
  3 12  1  0
  4 13  1  0
  4 14  1  0
  5 15  1  0
  5 16  1  0
  6 17  1  0
  7 18  1  0
  8 19  1  0
  8 20  1  0
  9 21  1  0
M  END
