
     RDKit          3D

 15 16  0  0  0  0  0  0  0  0999 V2000
   -1.1422   -0.8965    1.6106 O   0  0  0  0  0  0  0  0  0  0  0  0
   -0.5443   -0.6559    0.3853 C   0  0  0  0  0  0  0  0  0  0  0  0
    0.7949   -1.2307    0.1103 C   0  0  0  0  0  0  0  0  0  0  0  0
    1.6388   -0.2695   -0.2465 C   0  0  0  0  0  0  0  0  0  0  0  0
    0.9635    1.0413   -0.2494 C   0  0  0  0  0  0  0  0  0  0  0  0
   -0.4868    0.7967    0.0185 C   0  0  0  0  0  0  0  0  0  0  0  0
   -1.3030   -0.1398   -0.7690 C   0  0  0  0  0  0  0  0  0  0  0  0
   -1.7613   -0.1697    1.8460 H   0  0  0  0  0  0  0  0  0  0  0  0
    1.0137   -2.2830    0.1982 H   0  0  0  0  0  0  0  0  0  0  0  0
    2.6781   -0.4381   -0.4985 H   0  0  0  0  0  0  0  0  0  0  0  0
    1.3702    1.6374    0.6030 H   0  0  0  0  0  0  0  0  0  0  0  0
    1.1662    1.6084   -1.1707 H   0  0  0  0  0  0  0  0  0  0  0  0
   -0.9990    1.5470    0.6260 H   0  0  0  0  0  0  0  0  0  0  0  0
   -2.4031   -0.0158   -0.7040 H   0  0  0  0  0  0  0  0  0  0  0  0
   -0.9856   -0.5320   -1.7599 H   0  0  0  0  0  0  0  0  0  0  0  0
  1  2  1  0
  2  3  1  0
  3  4  2  0
  4  5  1  0
  5  6  1  0
  6  7  1  0
  6  2  1  0
  7  2  1  0
  1  8  1  0
  3  9  1  0
  4 10  1  0
  5 11  1  0
  5 12  1  0
  6 13  1  0
  7 14  1  0
  7 15  1  0
M  END
