
     RDKit          3D

 19 21  0  0  0  0  0  0  0  0999 V2000
   -2.2862    0.7983   -0.2846 O   0  0  0  0  0  0  0  0  0  0  0  0
   -1.0389    0.3556   -0.1908 C   0  0  0  0  0  0  0  0  0  0  0  0
   -0.7354   -1.0032   -0.7748 C   0  0  0  0  0  0  0  0  0  0  0  0
    0.7598   -1.0955   -0.4304 C   0  0  0  0  0  0  0  0  0  0  0  0
    1.2418    0.2820   -0.5051 C   0  0  0  0  0  0  0  0  0  0  0  0
    0.0477    1.1939   -0.8193 C   0  0  0  0  0  0  0  0  0  0  0  0
    0.8986   -0.3526    0.8215 C   0  0  0  0  0  0  0  0  0  0  0  0
    1.8662   -0.5265    1.7479 O   0  0  0  0  0  0  0  0  0  0  0  0
   -0.4765    0.1942    1.2147 C   0  0  0  0  0  0  0  0  0  0  0  0
   -2.9371    0.0770   -0.1969 H   0  0  0  0  0  0  0  0  0  0  0  0
   -0.8549   -1.0161   -1.8885 H   0  0  0  0  0  0  0  0  0  0  0  0
   -1.2942   -1.8194   -0.2936 H   0  0  0  0  0  0  0  0  0  0  0  0
    1.3212   -1.9740   -0.7158 H   0  0  0  0  0  0  0  0  0  0  0  0
    2.2422    0.6012   -0.7466 H   0  0  0  0  0  0  0  0  0  0  0  0
   -0.0743    1.3383   -1.8975 H   0  0  0  0  0  0  0  0  0  0  0  0
    0.1680    2.1384   -0.2456 H   0  0  0  0  0  0  0  0  0  0  0  0
    2.5317    0.2226    1.7119 H   0  0  0  0  0  0  0  0  0  0  0  0
   -0.4091    1.1691    1.7013 H   0  0  0  0  0  0  0  0  0  0  0  0
   -0.9707   -0.5834    1.7923 H   0  0  0  0  0  0  0  0  0  0  0  0
  1  2  1  0
  2  3  1  0
  3  4  1  0
  4  5  1  0
  5  6  1  0
  5  7  1  0
  7  8  1  0
  7  9  1  0
  6  2  1  0
  9  2  1  0
  7  4  1  0
  1 10  1  0
  3 11  1  0
  3 12  1  0
  4 13  1  0
  5 14  1  0
  6 15  1  0
  6 16  1  0
  8 17  1  0
  9 18  1  0
  9 19  1  0
M  END
