
     RDKit          3D

 19 21  0  0  0  0  0  0  0  0999 V2000
    2.2875    0.5144    0.6268 O   0  0  0  0  0  0  0  0  0  0  0  0
    0.9972    0.3028    0.2431 C   0  0  0  0  0  0  0  0  0  0  0  0
    0.4460    1.3386   -0.6695 C   0  0  0  0  0  0  0  0  0  0  0  0
   -0.8173    1.1781   -1.0160 C   0  0  0  0  0  0  0  0  0  0  0  0
   -1.5520    0.0121   -0.5206 C   0  0  0  0  0  0  0  0  0  0  0  0
   -0.7365   -1.2134   -0.3748 C   0  0  0  0  0  0  0  0  0  0  0  0
    0.7510   -1.0248   -0.4316 C   0  0  0  0  0  0  0  0  0  0  0  0
   -1.1459   -0.4662    0.8169 C   0  0  0  0  0  0  0  0  0  0  0  0
    0.0341    0.2281    1.4079 C   0  0  0  0  0  0  0  0  0  0  0  0
    2.9482    0.2247   -0.0250 H   0  0  0  0  0  0  0  0  0  0  0  0
    1.0772    2.1383   -0.9918 H   0  0  0  0  0  0  0  0  0  0  0  0
   -1.3072    1.8917   -1.6543 H   0  0  0  0  0  0  0  0  0  0  0  0
   -2.5968   -0.1416   -0.8305 H   0  0  0  0  0  0  0  0  0  0  0  0
   -1.1228   -2.1845   -0.6696 H   0  0  0  0  0  0  0  0  0  0  0  0
    1.2162   -1.8453    0.1415 H   0  0  0  0  0  0  0  0  0  0  0  0
    1.1256   -1.0529   -1.4692 H   0  0  0  0  0  0  0  0  0  0  0  0
   -1.9466   -0.8648    1.4579 H   0  0  0  0  0  0  0  0  0  0  0  0
   -0.1819    1.2683    1.7414 H   0  0  0  0  0  0  0  0  0  0  0  0
    0.5240   -0.3039    2.2172 H   0  0  0  0  0  0  0  0  0  0  0  0
  1  2  1  0
  2  3  1  0
  3  4  2  0
  4  5  1  0
  5  6  1  0
  6  7  1  0
  6  8  1  0
  8  9  1  0
  7  2  1  0
  9  2  1  0
  8  5  1  0
  1 10  1  0
  3 11  1  0
  4 12  1  0
  5 13  1  0
  6 14  1  0
  7 15  1  0
  7 16  1  0
  8 17  1  0
  9 18  1  0
  9 19  1  0
M  END
