
     RDKit          3D

 17 19  0  0  0  0  0  0  0  0999 V2000
    1.7462    0.6318    1.2943 O   0  0  0  0  0  0  0  0  0  0  0  0
    0.7527    0.0342    0.5929 C   0  0  0  0  0  0  0  0  0  0  0  0
    0.1150   -1.1719    1.1838 C   0  0  0  0  0  0  0  0  0  0  0  0
   -1.0766   -1.3353    0.6178 C   0  0  0  0  0  0  0  0  0  0  0  0
   -1.3495   -0.2895   -0.3771 C   0  0  0  0  0  0  0  0  0  0  0  0
   -0.2543    0.2255   -1.2340 C   0  0  0  0  0  0  0  0  0  0  0  0
    1.1409   -0.2631   -0.8631 C   0  0  0  0  0  0  0  0  0  0  0  0
   -0.3873    0.8015    0.0913 C   0  0  0  0  0  0  0  0  0  0  0  0
   -0.7983    2.0179    0.4386 O   0  0  0  0  0  0  0  0  0  0  0  0
    2.3689    1.0776    0.6382 H   0  0  0  0  0  0  0  0  0  0  0  0
    0.5441   -1.8093    1.9440 H   0  0  0  0  0  0  0  0  0  0  0  0
   -1.7539   -2.1397    0.8643 H   0  0  0  0  0  0  0  0  0  0  0  0
   -2.3698    0.0737   -0.5606 H   0  0  0  0  0  0  0  0  0  0  0  0
   -0.4262    0.7530   -2.1604 H   0  0  0  0  0  0  0  0  0  0  0  0
    1.2527   -1.3452   -1.0470 H   0  0  0  0  0  0  0  0  0  0  0  0
    1.9658    0.3810   -1.2168 H   0  0  0  0  0  0  0  0  0  0  0  0
   -1.4704    2.3577   -0.2062 H   0  0  0  0  0  0  0  0  0  0  0  0
  1  2  1  0
  2  3  1  0
  3  4  2  0
  4  5  1  0
  5  6  1  0
  6  7  1  0
  6  8  1  0
  8  9  1  0
  7  2  1  0
  8  2  1  0
  8  5  1  0
  1 10  1  0
  3 11  1  0
  4 12  1  0
  5 13  1  0
  6 14  1  0
  7 15  1  0
  7 16  1  0
  9 17  1  0
M  END
