
     RDKit          3D

 17 20  0  0  0  0  0  0  0  0999 V2000
   -2.3690    0.9298   -0.6070 O   0  0  0  0  0  0  0  0  0  0  0  0
   -1.1386    0.4205   -0.3112 C   0  0  0  0  0  0  0  0  0  0  0  0
   -0.8065   -1.0298   -0.5513 C   0  0  0  0  0  0  0  0  0  0  0  0
    0.5628   -1.1435    0.0937 C   0  0  0  0  0  0  0  0  0  0  0  0
    0.6588   -0.1208    1.1350 C   0  0  0  0  0  0  0  0  0  0  0  0
   -0.4469    0.8315    0.9063 C   0  0  0  0  0  0  0  0  0  0  0  0
    0.1294    1.1133   -0.5174 C   0  0  0  0  0  0  0  0  0  0  0  0
    1.1973    0.1510   -0.2095 C   0  0  0  0  0  0  0  0  0  0  0  0
    2.5098    0.3209   -0.4966 O   0  0  0  0  0  0  0  0  0  0  0  0
   -3.0439    0.4125   -0.0681 H   0  0  0  0  0  0  0  0  0  0  0  0
   -1.5345   -1.7328   -0.1539 H   0  0  0  0  0  0  0  0  0  0  0  0
   -0.6365   -1.1336   -1.6582 H   0  0  0  0  0  0  0  0  0  0  0  0
    1.1108   -2.0819    0.0741 H   0  0  0  0  0  0  0  0  0  0  0  0
    1.2436   -0.1845    2.0403 H   0  0  0  0  0  0  0  0  0  0  0  0
   -0.6704    1.6847    1.5213 H   0  0  0  0  0  0  0  0  0  0  0  0
    0.2672    2.1371   -0.8144 H   0  0  0  0  0  0  0  0  0  0  0  0
    2.9667   -0.5744   -0.3831 H   0  0  0  0  0  0  0  0  0  0  0  0
  1  2  1  0
  2  3  1  0
  3  4  1  0
  4  5  1  0
  5  6  1  0
  6  7  1  0
  7  8  1  0
  8  9  1  0
  6  2  1  0
  7  2  1  0
  8  4  1  0
  8  5  1  0
  1 10  1  0
  3 11  1  0
  3 12  1  0
  4 13  1  0
  5 14  1  0
  6 15  1  0
  7 16  1  0
  9 17  1  0
M  END
