
     RDKit          3D

 21 23  0  0  0  0  0  0  0  0999 V2000
   -1.2147    2.0456    0.6284 O   0  0  0  0  0  0  0  0  0  0  0  0
   -0.6170    0.8543    0.2958 C   0  0  0  0  0  0  0  0  0  0  0  0
   -1.3344   -0.3947    0.8321 C   0  0  0  0  0  0  0  0  0  0  0  0
   -0.6807   -1.0443   -0.3967 C   0  0  0  0  0  0  0  0  0  0  0  0
   -1.1493    0.2776   -1.0211 C   0  0  0  0  0  0  0  0  0  0  0  0
    0.7953   -1.1290   -0.2969 C   0  0  0  0  0  0  0  0  0  0  0  0
    1.3295   -0.5613    1.0295 C   0  0  0  0  0  0  0  0  0  0  0  0
    0.8578    0.7633    0.4258 C   0  0  0  0  0  0  0  0  0  0  0  0
    1.5072    0.1282   -0.8138 C   0  0  0  0  0  0  0  0  0  0  0  0
   -1.6447    2.4496   -0.1886 H   0  0  0  0  0  0  0  0  0  0  0  0
   -2.4156   -0.2888    0.6438 H   0  0  0  0  0  0  0  0  0  0  0  0
   -1.0930   -0.7521    1.7938 H   0  0  0  0  0  0  0  0  0  0  0  0
   -1.2436   -1.9237   -0.6984 H   0  0  0  0  0  0  0  0  0  0  0  0
   -2.2540    0.3367   -1.0021 H   0  0  0  0  0  0  0  0  0  0  0  0
   -0.7363    0.5946   -1.9354 H   0  0  0  0  0  0  0  0  0  0  0  0
    1.2944   -2.0288   -0.6449 H   0  0  0  0  0  0  0  0  0  0  0  0
    0.9189   -0.9020    1.9358 H   0  0  0  0  0  0  0  0  0  0  0  0
    2.4361   -0.6106    0.9870 H   0  0  0  0  0  0  0  0  0  0  0  0
    1.3783    1.6420    0.8129 H   0  0  0  0  0  0  0  0  0  0  0  0
    2.5892    0.0402   -0.6191 H   0  0  0  0  0  0  0  0  0  0  0  0
    1.2765    0.5034   -1.7680 H   0  0  0  0  0  0  0  0  0  0  0  0
  1  2  1  0
  2  3  1  0
  3  4  1  0
  4  5  1  0
  4  6  1  0
  6  7  1  0
  7  8  1  0
  8  9  1  0
  5  2  1  0
  9  6  1  0
  8  2  1  0
  1 10  1  0
  3 11  1  0
  3 12  1  0
  4 13  1  0
  5 14  1  0
  5 15  1  0
  6 16  1  0
  7 17  1  0
  7 18  1  0
  8 19  1  0
  9 20  1  0
  9 21  1  0
M  END
