
     RDKit          3D

 19 20  0  0  0  0  0  0  0  0999 V2000
   -2.1723    0.8138    0.6901 O   0  0  0  0  0  0  0  0  0  0  0  0
   -1.0011    0.3633    0.1640 C   0  0  0  0  0  0  0  0  0  0  0  0
    0.0211    1.4532   -0.0307 C   0  0  0  0  0  0  0  0  0  0  0  0
    1.2930    1.0657    0.0374 C   0  0  0  0  0  0  0  0  0  0  0  0
    1.6546   -0.3182   -0.3477 C   0  0  0  0  0  0  0  0  0  0  0  0
    0.5737   -1.3224   -0.0093 C   0  0  0  0  0  0  0  0  0  0  0  0
   -0.2978   -0.6661    1.0584 C   0  0  0  0  0  0  0  0  0  0  0  0
   -0.2467   -1.4396   -1.1100 O   0  0  0  0  0  0  0  0  0  0  0  0
   -1.1512   -0.4135   -1.1100 C   0  0  0  0  0  0  0  0  0  0  0  0
   -2.0208    1.4478    1.4058 H   0  0  0  0  0  0  0  0  0  0  0  0
   -0.2524    2.4813   -0.2135 H   0  0  0  0  0  0  0  0  0  0  0  0
    2.0473    1.7930    0.3815 H   0  0  0  0  0  0  0  0  0  0  0  0
    2.6159   -0.6483    0.1023 H   0  0  0  0  0  0  0  0  0  0  0  0
    1.7998   -0.3058   -1.4610 H   0  0  0  0  0  0  0  0  0  0  0  0
    0.9935   -2.2713    0.3191 H   0  0  0  0  0  0  0  0  0  0  0  0
   -0.9929   -1.3624    1.5188 H   0  0  0  0  0  0  0  0  0  0  0  0
    0.3601   -0.1680    1.7924 H   0  0  0  0  0  0  0  0  0  0  0  0
   -2.2034   -0.8036   -1.2331 H   0  0  0  0  0  0  0  0  0  0  0  0
   -1.0206    0.3010   -1.9545 H   0  0  0  0  0  0  0  0  0  0  0  0
  1  2  1  0
  2  3  1  0
  3  4  2  0
  4  5  1  0
  5  6  1  0
  6  7  1  0
  6  8  1  0
  8  9  1  0
  7  2  1  0
  9  2  1  0
  1 10  1  0
  3 11  1  0
  4 12  1  0
  5 13  1  0
  5 14  1  0
  6 15  1  0
  7 16  1  0
  7 17  1  0
  9 18  1  0
  9 19  1  0
M  END
