
     RDKit          3D

 21 22  0  0  0  0  0  0  0  0999 V2000
   -0.4357   -1.6434   -1.3975 O   0  0  0  0  0  0  0  0  0  0  0  0
   -0.1751   -0.7161   -0.4198 C   0  0  0  0  0  0  0  0  0  0  0  0
   -1.2855   -0.5639    0.5873 C   0  0  0  0  0  0  0  0  0  0  0  0
   -1.6436    0.9109    0.5711 C   0  0  0  0  0  0  0  0  0  0  0  0
   -0.2692    1.5190    0.2714 C   0  0  0  0  0  0  0  0  0  0  0  0
    0.1052    0.6679   -0.9506 C   0  0  0  0  0  0  0  0  0  0  0  0
    1.4499    0.7464   -1.2181 O   0  0  0  0  0  0  0  0  0  0  0  0
    2.0749    0.0567   -0.2026 C   0  0  0  0  0  0  0  0  0  0  0  0
    1.1553   -1.0499    0.2405 C   0  0  0  0  0  0  0  0  0  0  0  0
   -0.9596   -2.3975   -1.0005 H   0  0  0  0  0  0  0  0  0  0  0  0
   -2.1686   -1.1138    0.1894 H   0  0  0  0  0  0  0  0  0  0  0  0
   -0.9993   -0.8766    1.6057 H   0  0  0  0  0  0  0  0  0  0  0  0
   -2.3034    1.1546   -0.2796 H   0  0  0  0  0  0  0  0  0  0  0  0
   -2.0716    1.2713    1.4997 H   0  0  0  0  0  0  0  0  0  0  0  0
   -0.3269    2.5600   -0.0336 H   0  0  0  0  0  0  0  0  0  0  0  0
    0.4298    1.3419    1.1009 H   0  0  0  0  0  0  0  0  0  0  0  0
   -0.5584    0.9031   -1.7782 H   0  0  0  0  0  0  0  0  0  0  0  0
    2.3260    0.7669    0.6132 H   0  0  0  0  0  0  0  0  0  0  0  0
    3.0406   -0.3525   -0.5641 H   0  0  0  0  0  0  0  0  0  0  0  0
    1.0735   -1.1641    1.3221 H   0  0  0  0  0  0  0  0  0  0  0  0
    1.5417   -2.0211   -0.1565 H   0  0  0  0  0  0  0  0  0  0  0  0
  1  2  1  0
  2  3  1  0
  3  4  1  0
  4  5  1  0
  5  6  1  0
  6  7  1  0
  7  8  1  0
  8  9  1  0
  6  2  1  0
  9  2  1  0
  1 10  1  0
  3 11  1  0
  3 12  1  0
  4 13  1  0
  4 14  1  0
  5 15  1  0
  5 16  1  0
  6 17  1  0
  8 18  1  0
  8 19  1  0
  9 20  1  0
  9 21  1  0
M  END
