
     RDKit          3D

 19 20  0  0  0  0  0  0  0  0999 V2000
   -1.6578    0.7362    1.3462 O   0  0  0  0  0  0  0  0  0  0  0  0
   -0.9361    0.4771    0.1872 C   0  0  0  0  0  0  0  0  0  0  0  0
   -0.0235    1.5802   -0.1755 C   0  0  0  0  0  0  0  0  0  0  0  0
    1.2788    1.3929   -0.1005 C   0  0  0  0  0  0  0  0  0  0  0  0
    1.6812    0.0345    0.3585 C   0  0  0  0  0  0  0  0  0  0  0  0
    0.9340   -0.9021   -0.5998 C   0  0  0  0  0  0  0  0  0  0  0  0
   -0.4990   -0.8925   -0.1577 C   0  0  0  0  0  0  0  0  0  0  0  0
   -0.8712   -1.9771    0.6429 O   0  0  0  0  0  0  0  0  0  0  0  0
   -1.5592   -0.2342   -0.9514 C   0  0  0  0  0  0  0  0  0  0  0  0
   -1.6039   -0.0026    2.0075 H   0  0  0  0  0  0  0  0  0  0  0  0
   -0.4359    2.5428   -0.5031 H   0  0  0  0  0  0  0  0  0  0  0  0
    1.9645    2.1462   -0.3466 H   0  0  0  0  0  0  0  0  0  0  0  0
    1.2260   -0.0918    1.3754 H   0  0  0  0  0  0  0  0  0  0  0  0
    2.7510   -0.1367    0.3652 H   0  0  0  0  0  0  0  0  0  0  0  0
    0.9560   -0.4558   -1.6351 H   0  0  0  0  0  0  0  0  0  0  0  0
    1.3911   -1.9006   -0.6279 H   0  0  0  0  0  0  0  0  0  0  0  0
   -0.6364   -1.8294    1.5946 H   0  0  0  0  0  0  0  0  0  0  0  0
   -1.3745    0.1340   -1.9868 H   0  0  0  0  0  0  0  0  0  0  0  0
   -2.5850   -0.6214   -0.7932 H   0  0  0  0  0  0  0  0  0  0  0  0
  1  2  1  0
  2  3  1  0
  3  4  2  0
  4  5  1  0
  5  6  1  0
  6  7  1  0
  7  8  1  0
  7  9  1  0
  7  2  1  0
  9  2  1  0
  1 10  1  0
  3 11  1  0
  4 12  1  0
  5 13  1  0
  5 14  1  0
  6 15  1  0
  6 16  1  0
  8 17  1  0
  9 18  1  0
  9 19  1  0
M  END
