
     RDKit          3D

 23 24  0  0  0  0  0  0  0  0999 V2000
   -1.9369   -1.6202    0.2006 O   0  0  0  0  0  0  0  0  0  0  0  0
   -0.8727   -0.7490    0.0880 C   0  0  0  0  0  0  0  0  0  0  0  0
    0.4035   -1.5685    0.1746 C   0  0  0  0  0  0  0  0  0  0  0  0
    1.5511   -0.6877   -0.1868 C   0  0  0  0  0  0  0  0  0  0  0  0
    1.5514    0.6467    0.4771 C   0  0  0  0  0  0  0  0  0  0  0  0
    0.1929    1.2550    0.6425 C   0  0  0  0  0  0  0  0  0  0  0  0
   -0.4452    1.4980   -0.7229 C   0  0  0  0  0  0  0  0  0  0  0  0
   -0.9195    0.1166   -1.1321 C   0  0  0  0  0  0  0  0  0  0  0  0
   -0.8137    0.2622    1.2152 C   0  0  0  0  0  0  0  0  0  0  0  0
   -2.3721   -1.7477   -0.6811 H   0  0  0  0  0  0  0  0  0  0  0  0
    0.4805   -1.9779    1.2086 H   0  0  0  0  0  0  0  0  0  0  0  0
    0.3738   -2.4156   -0.5112 H   0  0  0  0  0  0  0  0  0  0  0  0
    1.5599   -0.6016   -1.3115 H   0  0  0  0  0  0  0  0  0  0  0  0
    2.5312   -1.1938    0.0540 H   0  0  0  0  0  0  0  0  0  0  0  0
    2.0654    0.6151    1.4519 H   0  0  0  0  0  0  0  0  0  0  0  0
    2.1426    1.3429   -0.1715 H   0  0  0  0  0  0  0  0  0  0  0  0
    0.2578    2.1583    1.2478 H   0  0  0  0  0  0  0  0  0  0  0  0
    0.2311    1.9611   -1.4357 H   0  0  0  0  0  0  0  0  0  0  0  0
   -1.3518    2.1327   -0.5044 H   0  0  0  0  0  0  0  0  0  0  0  0
   -0.3402   -0.2783   -1.9830 H   0  0  0  0  0  0  0  0  0  0  0  0
   -1.9775    0.2079   -1.5022 H   0  0  0  0  0  0  0  0  0  0  0  0
   -0.5201   -0.1509    2.1706 H   0  0  0  0  0  0  0  0  0  0  0  0
   -1.7914    0.7946    1.2113 H   0  0  0  0  0  0  0  0  0  0  0  0
  1  2  1  0
  2  3  1  0
  3  4  1  0
  4  5  1  0
  5  6  1  0
  6  7  1  0
  7  8  1  0
  6  9  1  0
  8  2  1  0
  9  2  1  0
  1 10  1  0
  3 11  1  0
  3 12  1  0
  4 13  1  0
  4 14  1  0
  5 15  1  0
  5 16  1  0
  6 17  1  0
  7 18  1  0
  7 19  1  0
  8 20  1  0
  8 21  1  0
  9 22  1  0
  9 23  1  0
M  END
