
     RDKit          3D

 17 18  0  0  0  0  0  0  0  0999 V2000
   -2.1823    0.1290    0.2580 O   0  0  0  0  0  0  0  0  0  0  0  0
   -0.8243    0.0370    0.1222 C   0  0  0  0  0  0  0  0  0  0  0  0
   -0.1986    1.2299   -0.5179 C   0  0  0  0  0  0  0  0  0  0  0  0
    1.0952    1.0734   -0.7371 C   0  0  0  0  0  0  0  0  0  0  0  0
    1.6120   -0.2039   -0.1125 C   0  0  0  0  0  0  0  0  0  0  0  0
    0.9601   -1.2659   -0.7350 O   0  0  0  0  0  0  0  0  0  0  0  0
   -0.4151   -1.1177   -0.8142 C   0  0  0  0  0  0  0  0  0  0  0  0
    1.2568   -0.1056    1.2346 O   0  0  0  0  0  0  0  0  0  0  0  0
   -0.1041   -0.2887    1.4211 C   0  0  0  0  0  0  0  0  0  0  0  0
   -2.4015    1.0058    0.6398 H   0  0  0  0  0  0  0  0  0  0  0  0
   -0.8099    2.0743   -0.7388 H   0  0  0  0  0  0  0  0  0  0  0  0
    1.7458    1.7294   -1.2780 H   0  0  0  0  0  0  0  0  0  0  0  0
    2.6821   -0.2671   -0.2698 H   0  0  0  0  0  0  0  0  0  0  0  0
   -0.9118   -2.0620   -0.4935 H   0  0  0  0  0  0  0  0  0  0  0  0
   -0.7353   -0.8656   -1.8483 H   0  0  0  0  0  0  0  0  0  0  0  0
   -0.2646   -1.3811    1.5935 H   0  0  0  0  0  0  0  0  0  0  0  0
   -0.5044    0.2788    2.2759 H   0  0  0  0  0  0  0  0  0  0  0  0
  1  2  1  0
  2  3  1  0
  3  4  2  0
  4  5  1  0
  5  6  1  0
  6  7  1  0
  5  8  1  0
  8  9  1  0
  7  2  1  0
  9  2  1  0
  1 10  1  0
  3 11  1  0
  4 12  1  0
  5 13  1  0
  7 14  1  0
  7 15  1  0
  9 16  1  0
  9 17  1  0
M  END
