
     RDKit          3D

 16 18  0  0  0  0  0  0  0  0999 V2000
    1.9510   -0.0696   -1.0627 O   0  0  0  0  0  0  0  0  0  0  0  0
    0.7845    0.0810   -0.3921 C   0  0  0  0  0  0  0  0  0  0  0  0
   -0.0486    1.2691   -0.6982 C   0  0  0  0  0  0  0  0  0  0  0  0
   -1.3213    0.9994   -0.4696 C   0  0  0  0  0  0  0  0  0  0  0  0
   -1.4599   -0.4220    0.0204 C   0  0  0  0  0  0  0  0  0  0  0  0
   -0.4486   -0.8882    1.0020 C   0  0  0  0  0  0  0  0  0  0  0  0
    0.8331   -0.1112    1.1217 C   0  0  0  0  0  0  0  0  0  0  0  0
   -0.2115   -1.0311   -0.4323 C   0  0  0  0  0  0  0  0  0  0  0  0
    2.4469    0.7839   -1.0432 H   0  0  0  0  0  0  0  0  0  0  0  0
    0.3483    2.2031   -1.0533 H   0  0  0  0  0  0  0  0  0  0  0  0
   -2.1256    1.6956   -0.6147 H   0  0  0  0  0  0  0  0  0  0  0  0
   -2.3829   -0.9654   -0.1473 H   0  0  0  0  0  0  0  0  0  0  0  0
   -0.7109   -1.6834    1.6893 H   0  0  0  0  0  0  0  0  0  0  0  0
    1.6967   -0.7487    1.3650 H   0  0  0  0  0  0  0  0  0  0  0  0
    0.7379    0.8237    1.7008 H   0  0  0  0  0  0  0  0  0  0  0  0
   -0.0892   -1.9364   -0.9857 H   0  0  0  0  0  0  0  0  0  0  0  0
  1  2  1  0
  2  3  1  0
  3  4  2  0
  4  5  1  0
  5  6  1  0
  6  7  1  0
  6  8  1  0
  7  2  1  0
  8  2  1  0
  8  5  1  0
  1  9  1  0
  3 10  1  0
  4 11  1  0
  5 12  1  0
  6 13  1  0
  7 14  1  0
  7 15  1  0
  8 16  1  0
M  END
