
     RDKit          3D

 21 22  0  0  0  0  0  0  0  0999 V2000
   -0.3163    1.4768   -1.7277 O   0  0  0  0  0  0  0  0  0  0  0  0
   -0.3294    0.8360   -0.5012 C   0  0  0  0  0  0  0  0  0  0  0  0
   -1.7253    0.8435    0.1388 C   0  0  0  0  0  0  0  0  0  0  0  0
   -1.4196   -0.5908    0.5896 C   0  0  0  0  0  0  0  0  0  0  0  0
   -0.4055   -0.6414   -0.5448 C   0  0  0  0  0  0  0  0  0  0  0  0
    0.8350   -1.3806   -0.2696 C   0  0  0  0  0  0  0  0  0  0  0  0
    1.9049   -0.6415    0.4588 C   0  0  0  0  0  0  0  0  0  0  0  0
    1.8818    0.7132    0.3280 O   0  0  0  0  0  0  0  0  0  0  0  0
    0.6705    1.3166    0.5093 C   0  0  0  0  0  0  0  0  0  0  0  0
   -0.3046    0.8018   -2.4442 H   0  0  0  0  0  0  0  0  0  0  0  0
   -2.5219    0.9117   -0.6242 H   0  0  0  0  0  0  0  0  0  0  0  0
   -1.8158    1.5565    0.9903 H   0  0  0  0  0  0  0  0  0  0  0  0
   -0.9697   -0.5643    1.5902 H   0  0  0  0  0  0  0  0  0  0  0  0
   -2.3014   -1.2345    0.4608 H   0  0  0  0  0  0  0  0  0  0  0  0
   -0.9188   -0.9745   -1.4924 H   0  0  0  0  0  0  0  0  0  0  0  0
    0.5642   -2.2864    0.3474 H   0  0  0  0  0  0  0  0  0  0  0  0
    1.2044   -1.8273   -1.2396 H   0  0  0  0  0  0  0  0  0  0  0  0
    1.9721   -0.9850    1.5334 H   0  0  0  0  0  0  0  0  0  0  0  0
    2.8871   -0.9947    0.0196 H   0  0  0  0  0  0  0  0  0  0  0  0
    0.2960    1.2508    1.5549 H   0  0  0  0  0  0  0  0  0  0  0  0
    0.8124    2.4143    0.3224 H   0  0  0  0  0  0  0  0  0  0  0  0
  1  2  1  0
  2  3  1  0
  3  4  1  0
  4  5  1  0
  5  6  1  0
  6  7  1  0
  7  8  1  0
  8  9  1  0
  5  2  1  0
  9  2  1  0
  1 10  1  0
  3 11  1  0
  3 12  1  0
  4 13  1  0
  4 14  1  0
  5 15  1  0
  6 16  1  0
  6 17  1  0
  7 18  1  0
  7 19  1  0
  9 20  1  0
  9 21  1  0
M  END
