
     RDKit          3D

 17 20  0  0  0  0  0  0  0  0999 V2000
   -1.1870    1.1846   -1.5622 O   0  0  0  0  0  0  0  0  0  0  0  0
   -0.4991    0.4814   -0.6616 C   0  0  0  0  0  0  0  0  0  0  0  0
   -1.2568   -0.6100    0.1182 C   0  0  0  0  0  0  0  0  0  0  0  0
   -0.1657   -0.7886    1.1828 C   0  0  0  0  0  0  0  0  0  0  0  0
   -0.0813    0.5485    1.6225 O   0  0  0  0  0  0  0  0  0  0  0  0
    0.2692    1.1823    0.4192 C   0  0  0  0  0  0  0  0  0  0  0  0
    1.4752    0.3691    0.0137 C   0  0  0  0  0  0  0  0  0  0  0  0
    1.0490   -0.9834    0.3392 C   0  0  0  0  0  0  0  0  0  0  0  0
    0.7167   -0.2713   -1.0112 C   0  0  0  0  0  0  0  0  0  0  0  0
   -1.8176    1.7995   -1.1182 H   0  0  0  0  0  0  0  0  0  0  0  0
   -2.1874   -0.2444    0.5320 H   0  0  0  0  0  0  0  0  0  0  0  0
   -1.2976   -1.5497   -0.4344 H   0  0  0  0  0  0  0  0  0  0  0  0
   -0.3836   -1.5060    1.9309 H   0  0  0  0  0  0  0  0  0  0  0  0
    0.3400    2.2476    0.4139 H   0  0  0  0  0  0  0  0  0  0  0  0
    2.4498    0.7624   -0.1236 H   0  0  0  0  0  0  0  0  0  0  0  0
    1.6032   -1.8928    0.2612 H   0  0  0  0  0  0  0  0  0  0  0  0
    0.9729   -0.7291   -1.9224 H   0  0  0  0  0  0  0  0  0  0  0  0
  1  2  1  0
  2  3  1  0
  3  4  1  0
  4  5  1  0
  5  6  1  0
  6  7  1  0
  7  8  1  0
  8  9  1  0
  6  2  1  0
  9  7  1  0
  9  2  1  0
  8  4  1  0
  1 10  1  0
  3 11  1  0
  3 12  1  0
  4 13  1  0
  6 14  1  0
  7 15  1  0
  8 16  1  0
  9 17  1  0
M  END
