
     RDKit          3D

 21 22  0  0  0  0  0  0  0  0999 V2000
   -0.9730    0.0713    1.9356 O   0  0  0  0  0  0  0  0  0  0  0  0
   -0.6690    0.0752    0.5972 C   0  0  0  0  0  0  0  0  0  0  0  0
   -0.0097    1.3297    0.1370 C   0  0  0  0  0  0  0  0  0  0  0  0
    1.4725    1.3464    0.2581 C   0  0  0  0  0  0  0  0  0  0  0  0
    2.1007    0.0270   -0.0315 C   0  0  0  0  0  0  0  0  0  0  0  0
    1.4112   -1.0801   -0.1211 C   0  0  0  0  0  0  0  0  0  0  0  0
   -0.0492   -1.1761    0.0477 C   0  0  0  0  0  0  0  0  0  0  0  0
   -0.8548   -0.9153   -1.2340 C   0  0  0  0  0  0  0  0  0  0  0  0
   -1.8709   -0.2317   -0.3087 C   0  0  0  0  0  0  0  0  0  0  0  0
   -1.7969   -0.4610    2.1579 H   0  0  0  0  0  0  0  0  0  0  0  0
   -0.2793    1.6032   -0.9135 H   0  0  0  0  0  0  0  0  0  0  0  0
   -0.4084    2.1664    0.7751 H   0  0  0  0  0  0  0  0  0  0  0  0
    1.7520    1.6163    1.2876 H   0  0  0  0  0  0  0  0  0  0  0  0
    1.9131    2.0671   -0.4878 H   0  0  0  0  0  0  0  0  0  0  0  0
    3.1797   -0.0003   -0.1720 H   0  0  0  0  0  0  0  0  0  0  0  0
    1.9506   -2.0004   -0.3359 H   0  0  0  0  0  0  0  0  0  0  0  0
   -0.3967   -2.0561    0.5981 H   0  0  0  0  0  0  0  0  0  0  0  0
   -1.2427   -1.8295   -1.7026 H   0  0  0  0  0  0  0  0  0  0  0  0
   -0.3557   -0.1889   -1.8881 H   0  0  0  0  0  0  0  0  0  0  0  0
   -2.5162   -1.0125    0.1325 H   0  0  0  0  0  0  0  0  0  0  0  0
   -2.3573    0.6492   -0.7316 H   0  0  0  0  0  0  0  0  0  0  0  0
  1  2  1  0
  2  3  1  0
  3  4  1  0
  4  5  1  0
  5  6  2  0
  6  7  1  0
  7  8  1  0
  8  9  1  0
  7  2  1  0
  9  2  1  0
  1 10  1  0
  3 11  1  0
  3 12  1  0
  4 13  1  0
  4 14  1  0
  5 15  1  0
  6 16  1  0
  7 17  1  0
  8 18  1  0
  8 19  1  0
  9 20  1  0
  9 21  1  0
M  END
