
     RDKit          3D

 21 22  0  0  0  0  0  0  0  0999 V2000
   -1.3178    2.1465   -0.0978 O   0  0  0  0  0  0  0  0  0  0  0  0
   -0.5790    1.0011   -0.1147 C   0  0  0  0  0  0  0  0  0  0  0  0
    0.9006    1.2100   -0.0961 C   0  0  0  0  0  0  0  0  0  0  0  0
    1.6789   -0.0576    0.0359 C   0  0  0  0  0  0  0  0  0  0  0  0
    0.8829   -1.3005   -0.2059 C   0  0  0  0  0  0  0  0  0  0  0  0
   -0.5807   -1.0878    0.0141 C   0  0  0  0  0  0  0  0  0  0  0  0
   -1.3678   -2.1934    0.1456 O   0  0  0  0  0  0  0  0  0  0  0  0
   -0.8695    0.0130    1.0232 C   0  0  0  0  0  0  0  0  0  0  0  0
   -1.0315   -0.0824   -1.0545 C   0  0  0  0  0  0  0  0  0  0  0  0
   -0.7079    2.9470   -0.0302 H   0  0  0  0  0  0  0  0  0  0  0  0
    1.2328    1.8537   -0.9449 H   0  0  0  0  0  0  0  0  0  0  0  0
    1.1270    1.8258    0.8242 H   0  0  0  0  0  0  0  0  0  0  0  0
    2.5266    0.0046   -0.7089 H   0  0  0  0  0  0  0  0  0  0  0  0
    2.2113   -0.1432    1.0287 H   0  0  0  0  0  0  0  0  0  0  0  0
    1.2563   -2.1699    0.3813 H   0  0  0  0  0  0  0  0  0  0  0  0
    1.0098   -1.5559   -1.2991 H   0  0  0  0  0  0  0  0  0  0  0  0
   -1.5997   -2.2915    1.1121 H   0  0  0  0  0  0  0  0  0  0  0  0
   -1.9475    0.0289    1.2505 H   0  0  0  0  0  0  0  0  0  0  0  0
   -0.1728    0.0926    1.8565 H   0  0  0  0  0  0  0  0  0  0  0  0
   -0.5063   -0.1748   -2.0038 H   0  0  0  0  0  0  0  0  0  0  0  0
   -2.1457   -0.0661   -1.1163 H   0  0  0  0  0  0  0  0  0  0  0  0
  1  2  1  0
  2  3  1  0
  3  4  1  0
  4  5  1  0
  5  6  1  0
  6  7  1  0
  6  8  1  0
  6  9  1  0
  8  2  1  0
  9  2  1  0
  1 10  1  0
  3 11  1  0
  3 12  1  0
  4 13  1  0
  4 14  1  0
  5 15  1  0
  5 16  1  0
  7 17  1  0
  8 18  1  0
  8 19  1  0
  9 20  1  0
  9 21  1  0
M  END
