
     RDKit          3D

 17 19  0  0  0  0  0  0  0  0999 V2000
    0.7240   -0.3530    1.8107 O   0  0  0  0  0  0  0  0  0  0  0  0
    0.7864   -0.1301    0.4014 C   0  0  0  0  0  0  0  0  0  0  0  0
    1.6669   -0.9849   -0.2773 C   0  0  0  0  0  0  0  0  0  0  0  0
    0.3342   -1.3749   -0.4745 C   0  0  0  0  0  0  0  0  0  0  0  0
   -0.7258   -1.6445    0.3426 O   0  0  0  0  0  0  0  0  0  0  0  0
   -1.4680   -0.4414    0.1687 C   0  0  0  0  0  0  0  0  0  0  0  0
   -0.3932    0.6583    0.0263 C   0  0  0  0  0  0  0  0  0  0  0  0
   -0.6180    1.7716   -0.7022 C   0  0  0  0  0  0  0  0  0  0  0  0
   -0.6507    1.8501    0.7850 O   0  0  0  0  0  0  0  0  0  0  0  0
    1.4246    0.2830    2.1649 H   0  0  0  0  0  0  0  0  0  0  0  0
    2.2646   -0.5620   -1.1323 H   0  0  0  0  0  0  0  0  0  0  0  0
    2.3449   -1.6834    0.2952 H   0  0  0  0  0  0  0  0  0  0  0  0
   -0.0895   -1.1189   -1.4966 H   0  0  0  0  0  0  0  0  0  0  0  0
   -2.0393   -0.5320   -0.7779 H   0  0  0  0  0  0  0  0  0  0  0  0
   -2.1080   -0.2380    1.0351 H   0  0  0  0  0  0  0  0  0  0  0  0
    0.1697    2.4835   -1.0423 H   0  0  0  0  0  0  0  0  0  0  0  0
   -1.6229    2.0166   -1.1268 H   0  0  0  0  0  0  0  0  0  0  0  0
  1  2  1  0
  2  3  1  0
  3  4  1  0
  4  5  1  0
  5  6  1  0
  6  7  1  0
  7  8  1  0
  8  9  1  0
  4  2  1  0
  9  7  1  0
  7  2  1  0
  1 10  1  0
  3 11  1  0
  3 12  1  0
  4 13  1  0
  6 14  1  0
  6 15  1  0
  8 16  1  0
  8 17  1  0
M  END
