
     RDKit          3D

 19 22  0  0  0  0  0  0  0  0999 V2000
   -2.7147   -0.4845    0.4935 O   0  0  0  0  0  0  0  0  0  0  0  0
   -1.5179   -0.1547    0.0931 C   0  0  0  0  0  0  0  0  0  0  0  0
   -0.4065    0.4886    0.7844 C   0  0  0  0  0  0  0  0  0  0  0  0
   -0.0033    1.1228   -0.5318 C   0  0  0  0  0  0  0  0  0  0  0  0
    1.4311    0.7518   -0.6538 C   0  0  0  0  0  0  0  0  0  0  0  0
    1.7271   -0.3230    0.3837 C   0  0  0  0  0  0  0  0  0  0  0  0
    0.3407   -0.8060    0.8080 C   0  0  0  0  0  0  0  0  0  0  0  0
   -0.4949   -1.2254   -0.4102 C   0  0  0  0  0  0  0  0  0  0  0  0
   -0.8698    0.0083   -1.1612 C   0  0  0  0  0  0  0  0  0  0  0  0
   -3.0269    0.0726    1.2701 H   0  0  0  0  0  0  0  0  0  0  0  0
   -0.5009    1.0876    1.6466 H   0  0  0  0  0  0  0  0  0  0  0  0
   -0.3240    2.1250   -0.7264 H   0  0  0  0  0  0  0  0  0  0  0  0
    1.5547    0.2325   -1.6508 H   0  0  0  0  0  0  0  0  0  0  0  0
    2.1366    1.5917   -0.5931 H   0  0  0  0  0  0  0  0  0  0  0  0
    2.2006    0.2047    1.2382 H   0  0  0  0  0  0  0  0  0  0  0  0
    2.3465   -1.1297   -0.0141 H   0  0  0  0  0  0  0  0  0  0  0  0
    0.2844   -1.4393    1.6708 H   0  0  0  0  0  0  0  0  0  0  0  0
   -0.9531   -2.1841   -0.4875 H   0  0  0  0  0  0  0  0  0  0  0  0
   -1.2096    0.0612   -2.1595 H   0  0  0  0  0  0  0  0  0  0  0  0
  1  2  1  0
  2  3  1  0
  3  4  1  0
  4  5  1  0
  5  6  1  0
  6  7  1  0
  7  8  1  0
  8  9  1  0
  8  2  1  0
  9  2  1  0
  7  3  1  0
  9  4  1  0
  1 10  1  0
  3 11  1  0
  4 12  1  0
  5 13  1  0
  5 14  1  0
  6 15  1  0
  6 16  1  0
  7 17  1  0
  8 18  1  0
  9 19  1  0
M  END
