
     RDKit          3D

 19 21  0  0  0  0  0  0  0  0999 V2000
   -0.6598    1.6252   -0.9406 O   0  0  0  0  0  0  0  0  0  0  0  0
   -0.5646    0.7968    0.1418 C   0  0  0  0  0  0  0  0  0  0  0  0
   -1.9472    0.4721    0.6536 C   0  0  0  0  0  0  0  0  0  0  0  0
   -1.9682   -0.5294   -0.5167 C   0  0  0  0  0  0  0  0  0  0  0  0
   -0.6050   -0.7713    0.0047 C   0  0  0  0  0  0  0  0  0  0  0  0
    0.5775   -0.0256   -0.0439 C   0  0  0  0  0  0  0  0  0  0  0  0
    1.7457   -0.1389    0.8713 C   0  0  0  0  0  0  0  0  0  0  0  0
    2.6003   -0.2229   -0.3753 C   0  0  0  0  0  0  0  0  0  0  0  0
    1.4213   -0.1100   -1.1130 O   0  0  0  0  0  0  0  0  0  0  0  0
   -0.6113    1.2407   -1.8149 H   0  0  0  0  0  0  0  0  0  0  0  0
   -2.0102   -0.0162    1.6242 H   0  0  0  0  0  0  0  0  0  0  0  0
   -2.6793    1.2604    0.5473 H   0  0  0  0  0  0  0  0  0  0  0  0
   -2.1146   -0.0997   -1.4917 H   0  0  0  0  0  0  0  0  0  0  0  0
   -2.6741   -1.3734   -0.3657 H   0  0  0  0  0  0  0  0  0  0  0  0
   -0.7311   -1.2181    1.0527 H   0  0  0  0  0  0  0  0  0  0  0  0
    2.0343    0.7673    1.4420 H   0  0  0  0  0  0  0  0  0  0  0  0
    1.8416   -1.0825    1.4405 H   0  0  0  0  0  0  0  0  0  0  0  0
    3.2507    0.6307   -0.5771 H   0  0  0  0  0  0  0  0  0  0  0  0
    3.0942   -1.2052   -0.5391 H   0  0  0  0  0  0  0  0  0  0  0  0
  1  2  1  0
  2  3  1  0
  3  4  1  0
  4  5  1  0
  5  6  1  0
  6  7  1  0
  7  8  1  0
  8  9  1  0
  5  2  1  0
  9  6  1  0
  6  2  1  0
  1 10  1  0
  3 11  1  0
  3 12  1  0
  4 13  1  0
  4 14  1  0
  5 15  1  0
  7 16  1  0
  7 17  1  0
  8 18  1  0
  8 19  1  0
M  END
