
     RDKit          3D

 19 21  0  0  0  0  0  0  0  0999 V2000
   -0.5359   -2.2504   -0.0820 O   0  0  0  0  0  0  0  0  0  0  0  0
   -0.2468   -0.9192   -0.2595 C   0  0  0  0  0  0  0  0  0  0  0  0
   -1.2044   -0.2335   -1.1376 C   0  0  0  0  0  0  0  0  0  0  0  0
   -1.7178    0.8305   -0.5427 C   0  0  0  0  0  0  0  0  0  0  0  0
   -1.1648    0.9956    0.8231 C   0  0  0  0  0  0  0  0  0  0  0  0
   -0.1233   -0.0809    0.9811 C   0  0  0  0  0  0  0  0  0  0  0  0
    1.2783    0.3146    0.6614 C   0  0  0  0  0  0  0  0  0  0  0  0
    1.6929    0.7224   -0.6996 C   0  0  0  0  0  0  0  0  0  0  0  0
    1.2074   -0.6871   -0.5382 C   0  0  0  0  0  0  0  0  0  0  0  0
   -0.2885   -2.5684    0.8220 H   0  0  0  0  0  0  0  0  0  0  0  0
   -1.4697   -0.5406   -2.1417 H   0  0  0  0  0  0  0  0  0  0  0  0
   -2.4463    1.5109   -0.9680 H   0  0  0  0  0  0  0  0  0  0  0  0
   -1.9257    0.8998    1.6188 H   0  0  0  0  0  0  0  0  0  0  0  0
   -0.6438    1.9721    0.9020 H   0  0  0  0  0  0  0  0  0  0  0  0
   -0.2622   -0.6819    1.8780 H   0  0  0  0  0  0  0  0  0  0  0  0
    2.0535    0.0862    1.4027 H   0  0  0  0  0  0  0  0  0  0  0  0
    2.7849    0.8058   -0.8635 H   0  0  0  0  0  0  0  0  0  0  0  0
    1.0877    1.3442   -1.3581 H   0  0  0  0  0  0  0  0  0  0  0  0
    1.9246   -1.5203   -0.4981 H   0  0  0  0  0  0  0  0  0  0  0  0
  1  2  1  0
  2  3  1  0
  3  4  2  0
  4  5  1  0
  5  6  1  0
  6  7  1  0
  7  8  1  0
  8  9  1  0
  6  2  1  0
  9  7  1  0
  9  2  1  0
  1 10  1  0
  3 11  1  0
  4 12  1  0
  5 13  1  0
  5 14  1  0
  6 15  1  0
  7 16  1  0
  8 17  1  0
  8 18  1  0
  9 19  1  0
M  END
