
     RDKit          3D

 19 21  0  0  0  0  0  0  0  0999 V2000
    1.4479   -0.5723   -1.7496 O   0  0  0  0  0  0  0  0  0  0  0  0
    0.6961   -0.2960   -0.6043 C   0  0  0  0  0  0  0  0  0  0  0  0
    1.4432   -0.6183    0.6310 C   0  0  0  0  0  0  0  0  0  0  0  0
    1.8893    0.7065    0.7799 O   0  0  0  0  0  0  0  0  0  0  0  0
    0.8779    1.0859   -0.0934 C   0  0  0  0  0  0  0  0  0  0  0  0
   -0.4111    1.4002    0.5952 C   0  0  0  0  0  0  0  0  0  0  0  0
   -1.4429    0.5123   -0.0475 C   0  0  0  0  0  0  0  0  0  0  0  0
   -1.6332   -0.8721    0.4253 C   0  0  0  0  0  0  0  0  0  0  0  0
   -0.7308   -0.6244   -0.7031 C   0  0  0  0  0  0  0  0  0  0  0  0
    1.7638   -1.5192   -1.7329 H   0  0  0  0  0  0  0  0  0  0  0  0
    2.2884   -1.3364    0.4742 H   0  0  0  0  0  0  0  0  0  0  0  0
    0.8759   -0.9228    1.5158 H   0  0  0  0  0  0  0  0  0  0  0  0
    1.2123    1.7743   -0.8818 H   0  0  0  0  0  0  0  0  0  0  0  0
   -0.3327    1.1381    1.6813 H   0  0  0  0  0  0  0  0  0  0  0  0
   -0.6717    2.4749    0.4842 H   0  0  0  0  0  0  0  0  0  0  0  0
   -2.2645    1.0434   -0.5913 H   0  0  0  0  0  0  0  0  0  0  0  0
   -1.2895   -1.1978    1.4135 H   0  0  0  0  0  0  0  0  0  0  0  0
   -2.6248   -1.3269    0.1519 H   0  0  0  0  0  0  0  0  0  0  0  0
   -1.0935   -0.8496   -1.7486 H   0  0  0  0  0  0  0  0  0  0  0  0
  1  2  1  0
  2  3  1  0
  3  4  1  0
  4  5  1  0
  5  6  1  0
  6  7  1  0
  7  8  1  0
  8  9  1  0
  5  2  1  0
  9  7  1  0
  9  2  1  0
  1 10  1  0
  3 11  1  0
  3 12  1  0
  5 13  1  0
  6 14  1  0
  6 15  1  0
  7 16  1  0
  8 17  1  0
  8 18  1  0
  9 19  1  0
M  END
