
     RDKit          3D

 18 19  0  0  0  0  0  0  0  0999 V2000
    0.6609    1.5341    0.8094 O   0  0  0  0  0  0  0  0  0  0  0  0
    0.2319    0.6196   -0.1125 C   0  0  0  0  0  0  0  0  0  0  0  0
   -1.2027    0.6674   -0.5284 C   0  0  0  0  0  0  0  0  0  0  0  0
   -1.8206   -0.3356    0.4361 C   0  0  0  0  0  0  0  0  0  0  0  0
   -0.7175   -1.3479    0.6613 C   0  0  0  0  0  0  0  0  0  0  0  0
    0.4456   -0.8198    0.3526 C   0  0  0  0  0  0  0  0  0  0  0  0
    1.8631   -0.4970    0.0807 C   0  0  0  0  0  0  0  0  0  0  0  0
    1.2691    0.2508   -1.1427 C   0  0  0  0  0  0  0  0  0  0  0  0
    0.3337    1.3621    1.7344 H   0  0  0  0  0  0  0  0  0  0  0  0
   -1.3932    0.4176   -1.5840 H   0  0  0  0  0  0  0  0  0  0  0  0
   -1.6129    1.6817   -0.3506 H   0  0  0  0  0  0  0  0  0  0  0  0
   -2.7012   -0.7864   -0.0530 H   0  0  0  0  0  0  0  0  0  0  0  0
   -2.0011    0.1584    1.3927 H   0  0  0  0  0  0  0  0  0  0  0  0
   -0.9591   -2.3353    1.0258 H   0  0  0  0  0  0  0  0  0  0  0  0
    2.2421    0.2221    0.8399 H   0  0  0  0  0  0  0  0  0  0  0  0
    2.5214   -1.3251   -0.1901 H   0  0  0  0  0  0  0  0  0  0  0  0
    1.9046    1.0537   -1.5165 H   0  0  0  0  0  0  0  0  0  0  0  0
    0.9361   -0.5205   -1.8552 H   0  0  0  0  0  0  0  0  0  0  0  0
  1  2  1  0
  2  3  1  0
  3  4  1  0
  4  5  1  0
  5  6  2  0
  6  7  1  0
  7  8  1  0
  6  2  1  0
  8  2  1  0
  1  9  1  0
  3 10  1  0
  3 11  1  0
  4 12  1  0
  4 13  1  0
  5 14  1  0
  7 15  1  0
  7 16  1  0
  8 17  1  0
  8 18  1  0
M  END
