
     RDKit          3D

 17 19  0  0  0  0  0  0  0  0999 V2000
    0.7045    1.5993    0.8365 O   0  0  0  0  0  0  0  0  0  0  0  0
    0.0656    0.6741    0.1457 C   0  0  0  0  0  0  0  0  0  0  0  0
    0.5816   -0.8372    0.2005 C   0  0  0  0  0  0  0  0  0  0  0  0
   -0.5237   -1.4469    0.4704 C   0  0  0  0  0  0  0  0  0  0  0  0
   -1.6672   -0.4239    0.5250 C   0  0  0  0  0  0  0  0  0  0  0  0
   -1.0952    0.5873   -0.5612 C   0  0  0  0  0  0  0  0  0  0  0  0
    0.1185    0.4927   -1.3577 C   0  0  0  0  0  0  0  0  0  0  0  0
    1.5045    0.5914   -1.2306 O   0  0  0  0  0  0  0  0  0  0  0  0
    1.9145   -0.3234   -0.1318 C   0  0  0  0  0  0  0  0  0  0  0  0
    0.1728    2.1801    1.4406 H   0  0  0  0  0  0  0  0  0  0  0  0
   -0.5833   -2.5138    0.6251 H   0  0  0  0  0  0  0  0  0  0  0  0
   -1.7561    0.0541    1.4803 H   0  0  0  0  0  0  0  0  0  0  0  0
   -2.5334   -0.8866    0.0676 H   0  0  0  0  0  0  0  0  0  0  0  0
   -1.8168    1.4304   -0.6466 H   0  0  0  0  0  0  0  0  0  0  0  0
    0.0052   -0.4242   -1.9468 H   0  0  0  0  0  0  0  0  0  0  0  0
    2.5984   -1.0536   -0.5692 H   0  0  0  0  0  0  0  0  0  0  0  0
    2.3102    0.3002    0.6522 H   0  0  0  0  0  0  0  0  0  0  0  0
  1  2  1  0
  2  3  1  0
  3  4  2  0
  4  5  1  0
  5  6  1  0
  6  7  1  0
  7  8  1  0
  8  9  1  0
  6  2  1  0
  7  2  1  0
  9  3  1  0
  1 10  1  0
  4 11  1  0
  5 12  1  0
  5 13  1  0
  6 14  1  0
  7 15  1  0
  9 16  1  0
  9 17  1  0
M  END
