
     RDKit          3D

 19 21  0  0  0  0  0  0  0  0999 V2000
   -1.8539    1.4991   -0.0313 O   0  0  0  0  0  0  0  0  0  0  0  0
   -0.7807    0.6592   -0.0035 C   0  0  0  0  0  0  0  0  0  0  0  0
   -0.8121   -0.4421    1.0429 C   0  0  0  0  0  0  0  0  0  0  0  0
   -0.1002   -1.3213    0.0130 C   0  0  0  0  0  0  0  0  0  0  0  0
   -0.7701   -0.4492   -1.0512 C   0  0  0  0  0  0  0  0  0  0  0  0
    1.3725   -1.0334    0.0538 C   0  0  0  0  0  0  0  0  0  0  0  0
    1.8159   -0.4650    1.2453 O   0  0  0  0  0  0  0  0  0  0  0  0
    1.6920    0.3859    0.1762 C   0  0  0  0  0  0  0  0  0  0  0  0
    0.5538    1.3364    0.0472 C   0  0  0  0  0  0  0  0  0  0  0  0
   -2.6006    1.1868   -0.6103 H   0  0  0  0  0  0  0  0  0  0  0  0
   -0.2331   -0.2388    1.9533 H   0  0  0  0  0  0  0  0  0  0  0  0
   -1.8531   -0.7694    1.2291 H   0  0  0  0  0  0  0  0  0  0  0  0
   -0.3985   -2.3649    0.0213 H   0  0  0  0  0  0  0  0  0  0  0  0
   -0.1540   -0.2538   -1.9323 H   0  0  0  0  0  0  0  0  0  0  0  0
   -1.7952   -0.8305   -1.2739 H   0  0  0  0  0  0  0  0  0  0  0  0
    2.0414   -1.6551   -0.5519 H   0  0  0  0  0  0  0  0  0  0  0  0
    2.6655    0.7577   -0.2188 H   0  0  0  0  0  0  0  0  0  0  0  0
    0.6861    1.8753   -0.9365 H   0  0  0  0  0  0  0  0  0  0  0  0
    0.5242    2.1231    0.8275 H   0  0  0  0  0  0  0  0  0  0  0  0
  1  2  1  0
  2  3  1  0
  3  4  1  0
  4  5  1  0
  4  6  1  0
  6  7  1  0
  7  8  1  0
  8  9  1  0
  5  2  1  0
  8  6  1  0
  9  2  1  0
  1 10  1  0
  3 11  1  0
  3 12  1  0
  4 13  1  0
  5 14  1  0
  5 15  1  0
  6 16  1  0
  8 17  1  0
  9 18  1  0
  9 19  1  0
M  END
