
     RDKit          3D

 19 21  0  0  0  0  0  0  0  0999 V2000
   -0.9044    2.2273   -0.3565 O   0  0  0  0  0  0  0  0  0  0  0  0
   -0.4040    1.0080   -0.1427 C   0  0  0  0  0  0  0  0  0  0  0  0
   -0.2125    0.0738   -1.3079 C   0  0  0  0  0  0  0  0  0  0  0  0
    0.4108   -1.0969   -0.5316 C   0  0  0  0  0  0  0  0  0  0  0  0
   -0.6508   -1.3153    0.5204 C   0  0  0  0  0  0  0  0  0  0  0  0
   -0.9018    0.1401    0.9503 C   0  0  0  0  0  0  0  0  0  0  0  0
    0.1473    0.6312    1.7611 O   0  0  0  0  0  0  0  0  0  0  0  0
    0.8819    0.8996    0.5955 C   0  0  0  0  0  0  0  0  0  0  0  0
    1.5622   -0.3977    0.1385 C   0  0  0  0  0  0  0  0  0  0  0  0
   -1.8318    2.2544   -0.6364 H   0  0  0  0  0  0  0  0  0  0  0  0
    0.4534    0.4517   -2.0853 H   0  0  0  0  0  0  0  0  0  0  0  0
   -1.2088   -0.2411   -1.6596 H   0  0  0  0  0  0  0  0  0  0  0  0
    0.6527   -1.9424   -1.1391 H   0  0  0  0  0  0  0  0  0  0  0  0
   -1.5671   -1.6528    0.0182 H   0  0  0  0  0  0  0  0  0  0  0  0
   -0.3205   -1.9382    1.3524 H   0  0  0  0  0  0  0  0  0  0  0  0
   -1.8892    0.3289    1.3684 H   0  0  0  0  0  0  0  0  0  0  0  0
    1.5323    1.7735    0.6307 H   0  0  0  0  0  0  0  0  0  0  0  0
    1.8423   -0.9900    1.0439 H   0  0  0  0  0  0  0  0  0  0  0  0
    2.4079   -0.2142   -0.5204 H   0  0  0  0  0  0  0  0  0  0  0  0
  1  2  1  0
  2  3  1  0
  3  4  1  0
  4  5  1  0
  5  6  1  0
  6  7  1  0
  7  8  1  0
  8  9  1  0
  6  2  1  0
  8  2  1  0
  9  4  1  0
  1 10  1  0
  3 11  1  0
  3 12  1  0
  4 13  1  0
  5 14  1  0
  5 15  1  0
  6 16  1  0
  8 17  1  0
  9 18  1  0
  9 19  1  0
M  END
