
     RDKit          3D

 17 19  0  0  0  0  0  0  0  0999 V2000
   -0.5742   -0.8558    1.7696 O   0  0  0  0  0  0  0  0  0  0  0  0
   -0.4233   -0.3916    0.5513 C   0  0  0  0  0  0  0  0  0  0  0  0
   -1.5897    0.0689   -0.2809 C   0  0  0  0  0  0  0  0  0  0  0  0
   -0.4643    0.8126   -1.0301 C   0  0  0  0  0  0  0  0  0  0  0  0
    0.1595   -0.2708   -1.5954 O   0  0  0  0  0  0  0  0  0  0  0  0
    0.4893   -1.0454   -0.4513 C   0  0  0  0  0  0  0  0  0  0  0  0
    1.7942   -0.5025   -0.0188 C   0  0  0  0  0  0  0  0  0  0  0  0
    1.6181    0.7740    0.2645 C   0  0  0  0  0  0  0  0  0  0  0  0
    0.1410    1.0159    0.3360 C   0  0  0  0  0  0  0  0  0  0  0  0
   -1.3008   -1.5268    1.8101 H   0  0  0  0  0  0  0  0  0  0  0  0
   -2.2741    0.7507    0.2436 H   0  0  0  0  0  0  0  0  0  0  0  0
   -2.0330   -0.7425   -0.8539 H   0  0  0  0  0  0  0  0  0  0  0  0
   -0.7502    1.6523   -1.6083 H   0  0  0  0  0  0  0  0  0  0  0  0
    0.4069   -2.0909   -0.5790 H   0  0  0  0  0  0  0  0  0  0  0  0
    2.7085   -1.0312    0.0540 H   0  0  0  0  0  0  0  0  0  0  0  0
    2.3153    1.5864    0.4350 H   0  0  0  0  0  0  0  0  0  0  0  0
   -0.2231    1.7967    0.9535 H   0  0  0  0  0  0  0  0  0  0  0  0
  1  2  1  0
  2  3  1  0
  3  4  1  0
  4  5  1  0
  5  6  1  0
  6  7  1  0
  7  8  2  0
  8  9  1  0
  6  2  1  0
  9  2  1  0
  9  4  1  0
  1 10  1  0
  3 11  1  0
  3 12  1  0
  4 13  1  0
  6 14  1  0
  7 15  1  0
  8 16  1  0
  9 17  1  0
M  END
