
     RDKit          3D

 19 21  0  0  0  0  0  0  0  0999 V2000
   -1.5740   -1.7906   -0.2005 O   0  0  0  0  0  0  0  0  0  0  0  0
   -1.0545   -0.5353    0.1271 C   0  0  0  0  0  0  0  0  0  0  0  0
   -1.9274    0.6535    0.0050 C   0  0  0  0  0  0  0  0  0  0  0  0
   -0.8492    0.4357   -0.9642 C   0  0  0  0  0  0  0  0  0  0  0  0
    0.4347    1.1781   -0.7293 C   0  0  0  0  0  0  0  0  0  0  0  0
    1.1270    0.4842    0.3986 C   0  0  0  0  0  0  0  0  0  0  0  0
    2.0442   -0.6459    0.0231 C   0  0  0  0  0  0  0  0  0  0  0  0
    1.0873   -1.5290    0.5310 O   0  0  0  0  0  0  0  0  0  0  0  0
    0.1849   -0.5390    0.9552 C   0  0  0  0  0  0  0  0  0  0  0  0
   -1.7875   -2.3229    0.6060 H   0  0  0  0  0  0  0  0  0  0  0  0
   -1.7726    1.4316    0.7865 H   0  0  0  0  0  0  0  0  0  0  0  0
   -2.9970    0.5096   -0.2347 H   0  0  0  0  0  0  0  0  0  0  0  0
   -1.0019    0.0645   -1.9841 H   0  0  0  0  0  0  0  0  0  0  0  0
    0.1634    2.2129   -0.3899 H   0  0  0  0  0  0  0  0  0  0  0  0
    1.0471    1.2686   -1.6493 H   0  0  0  0  0  0  0  0  0  0  0  0
    1.5933    1.1399    1.1524 H   0  0  0  0  0  0  0  0  0  0  0  0
    2.2146   -0.7221   -1.0724 H   0  0  0  0  0  0  0  0  0  0  0  0
    2.9945   -0.7100    0.5973 H   0  0  0  0  0  0  0  0  0  0  0  0
    0.0732   -0.5836    2.0422 H   0  0  0  0  0  0  0  0  0  0  0  0
  1  2  1  0
  2  3  1  0
  3  4  1  0
  4  5  1  0
  5  6  1  0
  6  7  1  0
  7  8  1  0
  8  9  1  0
  4  2  1  0
  9  6  1  0
  9  2  1  0
  1 10  1  0
  3 11  1  0
  3 12  1  0
  4 13  1  0
  5 14  1  0
  5 15  1  0
  6 16  1  0
  7 17  1  0
  7 18  1  0
  9 19  1  0
M  END
