
     RDKit          2D

 17 20  0  0  0  0  0  0  0  0999 V2000
   -2.5095   -2.5095    0.0000 O   0  0  0  0  0  0  0  0  0  0  0  0
   -1.4489   -1.4489    0.0000 C   0  0  0  0  0  0  0  0  0  0  0  0
   -0.0000   -1.0607    0.0000 C   0  0  0  0  0  0  0  0  0  0  0  0
    1.0607    0.0000    0.0000 O   0  0  0  0  0  0  0  0  0  0  0  0
    0.0000    1.0607    0.0000 C   0  0  0  0  0  0  0  0  0  0  0  0
   -1.0607    0.0000    0.0000 C   0  0  0  0  0  0  0  0  0  0  0  0
   -1.8371    0.0000    0.0000 C   0  0  0  0  0  0  0  0  0  0  0  0
   -3.2457   -0.5156    0.0000 C   0  0  0  0  0  0  0  0  0  0  0  0
   -2.9879    0.9621    0.0000 C   0  0  0  0  0  0  0  0  0  0  0  0
   -2.1213   -3.9584    0.0000 H   0  0  0  0  0  0  0  0  0  0  0  0
    0.7500   -2.3597    0.0000 H   0  0  0  0  0  0  0  0  0  0  0  0
    0.0000    2.5607    0.0000 H   0  0  0  0  0  0  0  0  0  0  0  0
   -2.1396    1.0420    0.0000 H   0  0  0  0  0  0  0  0  0  0  0  0
   -3.3477   -2.0121    0.0000 H   0  0  0  0  0  0  0  0  0  0  0  0
   -4.7457   -0.5183    0.0000 H   0  0  0  0  0  0  0  0  0  0  0  0
   -4.3984    1.4726    0.0000 H   0  0  0  0  0  0  0  0  0  0  0  0
   -2.2403    2.2625    0.0000 H   0  0  0  0  0  0  0  0  0  0  0  0
  1  2  1  0
  2  3  1  0
  3  4  1  0
  4  5  1  0
  5  6  1  0
  5  7  1  0
  7  8  1  0
  8  9  1  0
  6  2  1  0
  9  7  1  0
  7  2  1  0
  6  3  1  0
  1 10  1  0
  3 11  1  0
  5 12  1  0
  6 13  1  0
  8 14  1  0
  8 15  1  0
  9 16  1  0
  9 17  1  0
M  END
