
     RDKit          3D

 19 21  0  0  0  0  0  0  0  0999 V2000
   -2.0857   -0.6879    1.0245 O   0  0  0  0  0  0  0  0  0  0  0  0
   -0.9239   -0.3601    0.3749 C   0  0  0  0  0  0  0  0  0  0  0  0
   -0.0245   -1.5448    0.0186 C   0  0  0  0  0  0  0  0  0  0  0  0
    0.8799   -1.0469   -0.9393 O   0  0  0  0  0  0  0  0  0  0  0  0
    1.7624   -0.2134   -0.3026 C   0  0  0  0  0  0  0  0  0  0  0  0
    1.1396    1.0184    0.2866 C   0  0  0  0  0  0  0  0  0  0  0  0
   -0.1624    1.5372   -0.1084 C   0  0  0  0  0  0  0  0  0  0  0  0
   -1.1025    0.5870   -0.8011 C   0  0  0  0  0  0  0  0  0  0  0  0
   -0.0518    0.6499    1.0692 C   0  0  0  0  0  0  0  0  0  0  0  0
   -2.4958   -1.4668    0.5837 H   0  0  0  0  0  0  0  0  0  0  0  0
   -0.6915   -2.3150   -0.3982 H   0  0  0  0  0  0  0  0  0  0  0  0
    0.4916   -1.8540    0.9406 H   0  0  0  0  0  0  0  0  0  0  0  0
    2.2029   -0.7885    0.5617 H   0  0  0  0  0  0  0  0  0  0  0  0
    2.6130    0.0124   -0.9816 H   0  0  0  0  0  0  0  0  0  0  0  0
    1.8627    1.6967    0.7728 H   0  0  0  0  0  0  0  0  0  0  0  0
   -0.3936    2.6011   -0.0166 H   0  0  0  0  0  0  0  0  0  0  0  0
   -2.1175    0.9793   -0.9440 H   0  0  0  0  0  0  0  0  0  0  0  0
   -0.6615    0.2302   -1.7505 H   0  0  0  0  0  0  0  0  0  0  0  0
   -0.2412    0.9653    2.0924 H   0  0  0  0  0  0  0  0  0  0  0  0
  1  2  1  0
  2  3  1  0
  3  4  1  0
  4  5  1  0
  5  6  1  0
  6  7  1  0
  7  8  1  0
  7  9  1  0
  8  2  1  0
  9  2  1  0
  9  6  1  0
  1 10  1  0
  3 11  1  0
  3 12  1  0
  5 13  1  0
  5 14  1  0
  6 15  1  0
  7 16  1  0
  8 17  1  0
  8 18  1  0
  9 19  1  0
M  END
