
     RDKit          3D

 14 17  0  0  0  0  0  0  0  0999 V2000
    2.1897   -0.2314    0.3937 O   0  0  0  0  0  0  0  0  0  0  0  0
    0.8535   -0.1554    0.2817 C   0  0  0  0  0  0  0  0  0  0  0  0
   -0.1227   -1.0906    0.8631 C   0  0  0  0  0  0  0  0  0  0  0  0
   -1.2185   -0.3350    1.3086 O   0  0  0  0  0  0  0  0  0  0  0  0
   -1.2835    0.7645    0.4520 C   0  0  0  0  0  0  0  0  0  0  0  0
   -0.8699    0.2846   -0.8621 C   0  0  0  0  0  0  0  0  0  0  0  0
    0.0801    1.0962    0.0809 C   0  0  0  0  0  0  0  0  0  0  0  0
   -0.0157   -0.8937   -0.6046 C   0  0  0  0  0  0  0  0  0  0  0  0
    2.6998    0.0048   -0.4442 H   0  0  0  0  0  0  0  0  0  0  0  0
    0.1146   -2.0115    1.3749 H   0  0  0  0  0  0  0  0  0  0  0  0
   -2.1195    1.4394    0.5567 H   0  0  0  0  0  0  0  0  0  0  0  0
   -1.0165    0.7606   -1.8118 H   0  0  0  0  0  0  0  0  0  0  0  0
    0.4747    2.0244   -0.2753 H   0  0  0  0  0  0  0  0  0  0  0  0
    0.2339   -1.6569   -1.3137 H   0  0  0  0  0  0  0  0  0  0  0  0
  1  2  1  0
  2  3  1  0
  3  4  1  0
  4  5  1  0
  5  6  1  0
  6  7  1  0
  6  8  1  0
  7  2  1  0
  8  2  1  0
  8  3  1  0
  7  5  1  0
  1  9  1  0
  3 10  1  0
  5 11  1  0
  6 12  1  0
  7 13  1  0
  8 14  1  0
M  END
