
     RDKit          3D

 21 22  0  0  0  0  0  0  0  0999 V2000
    2.6169    1.0424    0.0494 O   0  0  0  0  0  0  0  0  0  0  0  0
    1.3214    0.5061   -0.1760 C   0  0  0  0  0  0  0  0  0  0  0  0
    0.3013    1.4990   -0.3466 C   0  0  0  0  0  0  0  0  0  0  0  0
   -0.9818    1.5543   -0.0474 C   0  0  0  0  0  0  0  0  0  0  0  0
   -1.7849    0.5002    0.6084 C   0  0  0  0  0  0  0  0  0  0  0  0
   -1.4408   -0.8845    0.0505 C   0  0  0  0  0  0  0  0  0  0  0  0
   -0.1916   -1.3614    0.6666 C   0  0  0  0  0  0  0  0  0  0  0  0
    1.0839   -0.8562    0.1434 C   0  0  0  0  0  0  0  0  0  0  0  0
    1.3139   -0.5691   -1.3118 C   0  0  0  0  0  0  0  0  0  0  0  0
    2.7196    1.3436    0.9842 H   0  0  0  0  0  0  0  0  0  0  0  0
    0.6521    2.4292   -0.8376 H   0  0  0  0  0  0  0  0  0  0  0  0
   -1.5071    2.4821   -0.3144 H   0  0  0  0  0  0  0  0  0  0  0  0
   -1.7535    0.5271    1.7001 H   0  0  0  0  0  0  0  0  0  0  0  0
   -2.8615    0.6632    0.3092 H   0  0  0  0  0  0  0  0  0  0  0  0
   -2.2768   -1.5522    0.3749 H   0  0  0  0  0  0  0  0  0  0  0  0
   -1.4690   -0.8314   -1.0352 H   0  0  0  0  0  0  0  0  0  0  0  0
   -0.2414   -1.1751    1.7629 H   0  0  0  0  0  0  0  0  0  0  0  0
   -0.1782   -2.4905    0.5830 H   0  0  0  0  0  0  0  0  0  0  0  0
    1.9614   -1.4221    0.5931 H   0  0  0  0  0  0  0  0  0  0  0  0
    2.2735   -0.7938   -1.7873 H   0  0  0  0  0  0  0  0  0  0  0  0
    0.4425   -0.6109   -1.9693 H   0  0  0  0  0  0  0  0  0  0  0  0
  1  2  1  0
  2  3  1  0
  3  4  2  0
  4  5  1  0
  5  6  1  0
  6  7  1  0
  7  8  1  0
  8  9  1  0
  8  2  1  0
  9  2  1  0
  1 10  1  0
  3 11  1  0
  4 12  1  0
  5 13  1  0
  5 14  1  0
  6 15  1  0
  6 16  1  0
  7 17  1  0
  7 18  1  0
  8 19  1  0
  9 20  1  0
  9 21  1  0
M  END
