
     RDKit          3D

 21 23  0  0  0  0  0  0  0  0999 V2000
   -1.3452    2.0704    0.1408 O   0  0  0  0  0  0  0  0  0  0  0  0
   -0.9292    0.7861   -0.2702 C   0  0  0  0  0  0  0  0  0  0  0  0
   -1.9061   -0.2697   -0.5065 C   0  0  0  0  0  0  0  0  0  0  0  0
   -1.1484   -0.2682    0.7571 C   0  0  0  0  0  0  0  0  0  0  0  0
    0.0062   -1.1726    0.9972 C   0  0  0  0  0  0  0  0  0  0  0  0
    1.2467   -0.7646    0.2657 C   0  0  0  0  0  0  0  0  0  0  0  0
    0.9576   -0.5688   -1.2174 C   0  0  0  0  0  0  0  0  0  0  0  0
    0.4508    0.7909   -0.8618 C   0  0  0  0  0  0  0  0  0  0  0  0
    1.4249    0.7597    0.3256 C   0  0  0  0  0  0  0  0  0  0  0  0
   -0.7649    2.2828    0.9235 H   0  0  0  0  0  0  0  0  0  0  0  0
   -1.7205   -0.9827   -1.3248 H   0  0  0  0  0  0  0  0  0  0  0  0
   -2.9877    0.0547   -0.4836 H   0  0  0  0  0  0  0  0  0  0  0  0
   -1.7577   -0.0172    1.6756 H   0  0  0  0  0  0  0  0  0  0  0  0
   -0.2034   -2.2397    0.7471 H   0  0  0  0  0  0  0  0  0  0  0  0
    0.2638   -1.1836    2.0907 H   0  0  0  0  0  0  0  0  0  0  0  0
    2.1294   -1.3446    0.5102 H   0  0  0  0  0  0  0  0  0  0  0  0
    1.9225   -0.4907   -1.7546 H   0  0  0  0  0  0  0  0  0  0  0  0
    0.2683   -1.2772   -1.6681 H   0  0  0  0  0  0  0  0  0  0  0  0
    0.6029    1.6017   -1.5641 H   0  0  0  0  0  0  0  0  0  0  0  0
    2.4359    1.0032   -0.0177 H   0  0  0  0  0  0  0  0  0  0  0  0
    1.0542    1.2303    1.2353 H   0  0  0  0  0  0  0  0  0  0  0  0
  1  2  1  0
  2  3  1  0
  3  4  1  0
  4  5  1  0
  5  6  1  0
  6  7  1  0
  7  8  1  0
  8  9  1  0
  4  2  1  0
  9  6  1  0
  8  2  1  0
  1 10  1  0
  3 11  1  0
  3 12  1  0
  4 13  1  0
  5 14  1  0
  5 15  1  0
  6 16  1  0
  7 17  1  0
  7 18  1  0
  8 19  1  0
  9 20  1  0
  9 21  1  0
M  END
