
     RDKit          3D

 18 19  0  0  0  0  0  0  0  0999 V2000
    1.9736   -1.3596    0.3310 O   0  0  0  0  0  0  0  0  0  0  0  0
    0.9805   -0.4442   -0.0614 C   0  0  0  0  0  0  0  0  0  0  0  0
   -0.2654   -1.0709   -0.5598 C   0  0  0  0  0  0  0  0  0  0  0  0
   -1.5078   -0.2855   -0.3222 C   0  0  0  0  0  0  0  0  0  0  0  0
   -1.4144    0.7432    0.7466 C   0  0  0  0  0  0  0  0  0  0  0  0
   -0.2597    1.4428    0.8203 O   0  0  0  0  0  0  0  0  0  0  0  0
    0.9039    0.8084    0.6358 C   0  0  0  0  0  0  0  0  0  0  0  0
    1.4165    0.7947   -0.8199 C   0  0  0  0  0  0  0  0  0  0  0  0
    1.9270   -1.3754    1.3395 H   0  0  0  0  0  0  0  0  0  0  0  0
   -0.3647   -2.1393   -0.2045 H   0  0  0  0  0  0  0  0  0  0  0  0
   -0.1532   -1.1808   -1.6800 H   0  0  0  0  0  0  0  0  0  0  0  0
   -1.9156    0.1649   -1.2737 H   0  0  0  0  0  0  0  0  0  0  0  0
   -2.3100   -1.0161   -0.0081 H   0  0  0  0  0  0  0  0  0  0  0  0
   -1.7260    0.3018    1.7396 H   0  0  0  0  0  0  0  0  0  0  0  0
   -2.2376    1.4899    0.5289 H   0  0  0  0  0  0  0  0  0  0  0  0
    1.7285    1.0381    1.3732 H   0  0  0  0  0  0  0  0  0  0  0  0
    2.4964    0.8851   -0.9872 H   0  0  0  0  0  0  0  0  0  0  0  0
    0.7280    1.2029   -1.5983 H   0  0  0  0  0  0  0  0  0  0  0  0
  1  2  1  0
  2  3  1  0
  3  4  1  0
  4  5  1  0
  5  6  1  0
  6  7  1  0
  7  8  1  0
  7  2  1  0
  8  2  1  0
  1  9  1  0
  3 10  1  0
  3 11  1  0
  4 12  1  0
  4 13  1  0
  5 14  1  0
  5 15  1  0
  7 16  1  0
  8 17  1  0
  8 18  1  0
M  END
