
     RDKit          3D

 19 21  0  0  0  0  0  0  0  0999 V2000
   -2.0190   -1.0897    0.2202 O   0  0  0  0  0  0  0  0  0  0  0  0
   -0.8850   -0.3414    0.0879 C   0  0  0  0  0  0  0  0  0  0  0  0
   -1.1051    1.1456    0.1230 C   0  0  0  0  0  0  0  0  0  0  0  0
    0.0546    1.8364    0.0658 O   0  0  0  0  0  0  0  0  0  0  0  0
    1.2080    1.1620   -0.0709 C   0  0  0  0  0  0  0  0  0  0  0  0
    1.3836   -0.1059    0.6229 C   0  0  0  0  0  0  0  0  0  0  0  0
    0.1088   -0.6279    1.2207 C   0  0  0  0  0  0  0  0  0  0  0  0
    1.2331   -0.0681   -0.8571 C   0  0  0  0  0  0  0  0  0  0  0  0
   -0.0594   -0.7427   -1.1108 C   0  0  0  0  0  0  0  0  0  0  0  0
   -2.5606   -1.0534   -0.5828 H   0  0  0  0  0  0  0  0  0  0  0  0
   -1.6122    1.3694    1.0981 H   0  0  0  0  0  0  0  0  0  0  0  0
   -1.8458    1.3923   -0.6605 H   0  0  0  0  0  0  0  0  0  0  0  0
    2.1189    1.8085   -0.1526 H   0  0  0  0  0  0  0  0  0  0  0  0
    2.3578   -0.4265    1.0275 H   0  0  0  0  0  0  0  0  0  0  0  0
    0.1296   -1.6770    1.5028 H   0  0  0  0  0  0  0  0  0  0  0  0
   -0.1506    0.0614    2.0758 H   0  0  0  0  0  0  0  0  0  0  0  0
    2.0673   -0.2564   -1.5353 H   0  0  0  0  0  0  0  0  0  0  0  0
    0.1102   -1.8540   -1.0087 H   0  0  0  0  0  0  0  0  0  0  0  0
   -0.5341   -0.5326   -2.0661 H   0  0  0  0  0  0  0  0  0  0  0  0
  1  2  1  0
  2  3  1  0
  3  4  1  0
  4  5  1  0
  5  6  1  0
  6  7  1  0
  6  8  1  0
  8  9  1  0
  7  2  1  0
  9  2  1  0
  8  5  1  0
  1 10  1  0
  3 11  1  0
  3 12  1  0
  5 13  1  0
  6 14  1  0
  7 15  1  0
  7 16  1  0
  8 17  1  0
  9 18  1  0
  9 19  1  0
M  END
