
     RDKit          3D

 19 21  0  0  0  0  0  0  0  0999 V2000
   -0.8264   -1.2032    1.2726 O   0  0  0  0  0  0  0  0  0  0  0  0
   -0.7682    0.0743    0.6431 C   0  0  0  0  0  0  0  0  0  0  0  0
   -2.0871    0.5692    0.4341 C   0  0  0  0  0  0  0  0  0  0  0  0
   -1.4810    0.1478   -0.7743 C   0  0  0  0  0  0  0  0  0  0  0  0
   -0.4980   -0.9781   -1.0168 C   0  0  0  0  0  0  0  0  0  0  0  0
    0.3938    0.0004   -0.2911 C   0  0  0  0  0  0  0  0  0  0  0  0
    1.6837   -0.4358    0.2075 C   0  0  0  0  0  0  0  0  0  0  0  0
    1.9832    1.0348   -0.1310 C   0  0  0  0  0  0  0  0  0  0  0  0
    0.8191    1.0985   -0.9344 O   0  0  0  0  0  0  0  0  0  0  0  0
   -0.7549   -0.9943    2.2400 H   0  0  0  0  0  0  0  0  0  0  0  0
   -3.0453    0.0358    0.7239 H   0  0  0  0  0  0  0  0  0  0  0  0
   -2.2397    1.6666    0.6798 H   0  0  0  0  0  0  0  0  0  0  0  0
   -1.1094    1.0198   -1.4093 H   0  0  0  0  0  0  0  0  0  0  0  0
   -0.2089   -1.1024   -2.0672 H   0  0  0  0  0  0  0  0  0  0  0  0
   -0.6494   -1.9095   -0.4897 H   0  0  0  0  0  0  0  0  0  0  0  0
    2.2043   -1.1377   -0.5081 H   0  0  0  0  0  0  0  0  0  0  0  0
    1.8174   -0.6789    1.2703 H   0  0  0  0  0  0  0  0  0  0  0  0
    1.8459    1.6235    0.8117 H   0  0  0  0  0  0  0  0  0  0  0  0
    2.9209    1.1691   -0.6611 H   0  0  0  0  0  0  0  0  0  0  0  0
  1  2  1  0
  2  3  1  0
  3  4  1  0
  4  5  1  0
  5  6  1  0
  6  7  1  0
  7  8  1  0
  8  9  1  0
  4  2  1  0
  9  6  1  0
  6  2  1  0
  1 10  1  0
  3 11  1  0
  3 12  1  0
  4 13  1  0
  5 14  1  0
  5 15  1  0
  7 16  1  0
  7 17  1  0
  8 18  1  0
  8 19  1  0
M  END
