
     RDKit          3D

 17 19  0  0  0  0  0  0  0  0999 V2000
   -2.2595   -0.5079    0.6165 O   0  0  0  0  0  0  0  0  0  0  0  0
   -0.9189   -0.3748    0.4619 C   0  0  0  0  0  0  0  0  0  0  0  0
   -0.0941   -1.4048   -0.2779 C   0  0  0  0  0  0  0  0  0  0  0  0
    0.7839   -0.2671   -0.7567 C   0  0  0  0  0  0  0  0  0  0  0  0
    1.8693    0.1268    0.2518 C   0  0  0  0  0  0  0  0  0  0  0  0
    1.2298    0.3629    1.4318 O   0  0  0  0  0  0  0  0  0  0  0  0
   -0.1080    0.6554    1.1740 C   0  0  0  0  0  0  0  0  0  0  0  0
   -0.2852    0.6801   -0.2809 C   0  0  0  0  0  0  0  0  0  0  0  0
   -0.8157    1.6507   -1.0199 O   0  0  0  0  0  0  0  0  0  0  0  0
   -2.7362   -0.2541   -0.2348 H   0  0  0  0  0  0  0  0  0  0  0  0
   -0.5904   -1.8866   -1.1395 H   0  0  0  0  0  0  0  0  0  0  0  0
    0.3672   -2.1007    0.4285 H   0  0  0  0  0  0  0  0  0  0  0  0
    1.0639   -0.2476   -1.7955 H   0  0  0  0  0  0  0  0  0  0  0  0
    2.2870    1.0860   -0.1376 H   0  0  0  0  0  0  0  0  0  0  0  0
    2.6242   -0.6664    0.2916 H   0  0  0  0  0  0  0  0  0  0  0  0
   -0.6667    1.2872    1.8756 H   0  0  0  0  0  0  0  0  0  0  0  0
   -1.7505    1.8607   -0.8889 H   0  0  0  0  0  0  0  0  0  0  0  0
  1  2  1  0
  2  3  1  0
  3  4  1  0
  4  5  1  0
  5  6  1  0
  6  7  1  0
  7  8  1  0
  8  9  1  0
  7  2  1  0
  8  2  1  0
  8  4  1  0
  1 10  1  0
  3 11  1  0
  3 12  1  0
  4 13  1  0
  5 14  1  0
  5 15  1  0
  7 16  1  0
  9 17  1  0
M  END
