
     RDKit          3D

 21 22  0  0  0  0  0  0  0  0999 V2000
    1.4450    1.7931    0.8183 O   0  0  0  0  0  0  0  0  0  0  0  0
    0.7328    0.7683    0.2644 C   0  0  0  0  0  0  0  0  0  0  0  0
   -0.3563    1.2987   -0.6195 C   0  0  0  0  0  0  0  0  0  0  0  0
   -1.5451    0.3985   -0.4885 C   0  0  0  0  0  0  0  0  0  0  0  0
   -1.0213   -0.7598    0.3635 C   0  0  0  0  0  0  0  0  0  0  0  0
   -0.2546   -1.6616   -0.5777 C   0  0  0  0  0  0  0  0  0  0  0  0
    0.7693   -1.0301   -1.2250 O   0  0  0  0  0  0  0  0  0  0  0  0
    1.5863   -0.2790   -0.4152 C   0  0  0  0  0  0  0  0  0  0  0  0
   -0.0941   -0.0049    1.3037 C   0  0  0  0  0  0  0  0  0  0  0  0
    2.2691    1.5475    1.2714 H   0  0  0  0  0  0  0  0  0  0  0  0
   -0.0616    1.4813   -1.6505 H   0  0  0  0  0  0  0  0  0  0  0  0
   -0.6596    2.2960   -0.1918 H   0  0  0  0  0  0  0  0  0  0  0  0
   -1.8572   -0.0172   -1.4783 H   0  0  0  0  0  0  0  0  0  0  0  0
   -2.4156    0.8837    0.0146 H   0  0  0  0  0  0  0  0  0  0  0  0
   -1.8067   -1.3083    0.8680 H   0  0  0  0  0  0  0  0  0  0  0  0
    0.0412   -2.6189   -0.0868 H   0  0  0  0  0  0  0  0  0  0  0  0
   -1.0002   -1.9737   -1.3674 H   0  0  0  0  0  0  0  0  0  0  0  0
    2.4308    0.1207   -0.9668 H   0  0  0  0  0  0  0  0  0  0  0  0
    1.9489   -0.9600    0.4025 H   0  0  0  0  0  0  0  0  0  0  0  0
   -0.7246    0.6725    1.8937 H   0  0  0  0  0  0  0  0  0  0  0  0
    0.5738   -0.6467    1.8674 H   0  0  0  0  0  0  0  0  0  0  0  0
  1  2  1  0
  2  3  1  0
  3  4  1  0
  4  5  1  0
  5  6  1  0
  6  7  1  0
  7  8  1  0
  5  9  1  0
  8  2  1  0
  9  2  1  0
  1 10  1  0
  3 11  1  0
  3 12  1  0
  4 13  1  0
  4 14  1  0
  5 15  1  0
  6 16  1  0
  6 17  1  0
  8 18  1  0
  8 19  1  0
  9 20  1  0
  9 21  1  0
M  END
