
     RDKit          3D

 19 21  0  0  0  0  0  0  0  0999 V2000
   -0.9595   -0.7888    1.8007 O   0  0  0  0  0  0  0  0  0  0  0  0
   -0.4948   -0.7336    0.5107 C   0  0  0  0  0  0  0  0  0  0  0  0
   -1.4404   -0.8695   -0.6120 C   0  0  0  0  0  0  0  0  0  0  0  0
   -0.9533    0.4974   -0.3512 C   0  0  0  0  0  0  0  0  0  0  0  0
   -1.7200    1.4032    0.3506 O   0  0  0  0  0  0  0  0  0  0  0  0
    0.3957    0.9645   -0.8008 C   0  0  0  0  0  0  0  0  0  0  0  0
    1.2045   -0.2778   -1.1444 C   0  0  0  0  0  0  0  0  0  0  0  0
    0.9716   -0.6008    0.3372 C   0  0  0  0  0  0  0  0  0  0  0  0
    1.1837    0.9114    0.5148 C   0  0  0  0  0  0  0  0  0  0  0  0
   -1.2317   -1.7318    1.9965 H   0  0  0  0  0  0  0  0  0  0  0  0
   -1.1952   -1.4282   -1.5402 H   0  0  0  0  0  0  0  0  0  0  0  0
   -2.5037   -1.0477   -0.3048 H   0  0  0  0  0  0  0  0  0  0  0  0
   -1.3801    1.5918    1.2685 H   0  0  0  0  0  0  0  0  0  0  0  0
    0.5034    1.8279   -1.4046 H   0  0  0  0  0  0  0  0  0  0  0  0
    0.7650   -0.9660   -1.8517 H   0  0  0  0  0  0  0  0  0  0  0  0
    2.2714   -0.0211   -1.2697 H   0  0  0  0  0  0  0  0  0  0  0  0
    1.6603   -1.2496    0.8148 H   0  0  0  0  0  0  0  0  0  0  0  0
    2.2331    1.1672    0.3155 H   0  0  0  0  0  0  0  0  0  0  0  0
    0.6900    1.3516    1.3702 H   0  0  0  0  0  0  0  0  0  0  0  0
  1  2  1  0
  2  3  1  0
  3  4  1  0
  4  5  1  0
  4  6  1  0
  6  7  1  0
  7  8  1  0
  8  9  1  0
  4  2  1  0
  9  6  1  0
  8  2  1  0
  1 10  1  0
  3 11  1  0
  3 12  1  0
  5 13  1  0
  6 14  1  0
  7 15  1  0
  7 16  1  0
  8 17  1  0
  9 18  1  0
  9 19  1  0
M  END
