
     RDKit          3D

 19 21  0  0  0  0  0  0  0  0999 V2000
   -1.5067   -1.7055    0.0505 O   0  0  0  0  0  0  0  0  0  0  0  0
   -0.9127   -0.6138    0.2218 C   0  0  0  0  0  0  0  0  0  0  0  0
   -1.4659    0.6564    0.8123 C   0  0  0  0  0  0  0  0  0  0  0  0
   -0.0481    1.0239    0.4211 C   0  0  0  0  0  0  0  0  0  0  0  0
    0.5272    2.1196    0.5975 O   0  0  0  0  0  0  0  0  0  0  0  0
   -0.3076    0.2746   -0.8421 C   0  0  0  0  0  0  0  0  0  0  0  0
    1.0275   -0.2954   -1.2043 C   0  0  0  0  0  0  0  0  0  0  0  0
    1.4267   -0.8874    0.1612 C   0  0  0  0  0  0  0  0  0  0  0  0
    0.3249   -0.3211    0.9995 C   0  0  0  0  0  0  0  0  0  0  0  0
   -1.9060   -1.8470   -0.8406 H   0  0  0  0  0  0  0  0  0  0  0  0
   -1.5470    0.5797    1.8961 H   0  0  0  0  0  0  0  0  0  0  0  0
   -2.2548    1.1538    0.2531 H   0  0  0  0  0  0  0  0  0  0  0  0
    0.7370    2.6931   -0.1559 H   0  0  0  0  0  0  0  0  0  0  0  0
   -0.9419    0.6820   -1.5943 H   0  0  0  0  0  0  0  0  0  0  0  0
    1.7422    0.5287   -1.3894 H   0  0  0  0  0  0  0  0  0  0  0  0
    0.9975   -1.0549   -1.9837 H   0  0  0  0  0  0  0  0  0  0  0  0
    2.4271   -0.5563    0.4663 H   0  0  0  0  0  0  0  0  0  0  0  0
    1.3410   -1.9906    0.0705 H   0  0  0  0  0  0  0  0  0  0  0  0
    0.3397   -0.4398    2.0604 H   0  0  0  0  0  0  0  0  0  0  0  0
  1  2  1  0
  2  3  1  0
  3  4  1  0
  4  5  1  0
  4  6  1  0
  6  7  1  0
  7  8  1  0
  8  9  1  0
  6  2  1  0
  9  2  1  0
  9  4  1  0
  1 10  1  0
  3 11  1  0
  3 12  1  0
  5 13  1  0
  6 14  1  0
  7 15  1  0
  7 16  1  0
  8 17  1  0
  8 18  1  0
  9 19  1  0
M  END
