
     RDKit          3D

 16 17  0  0  0  0  0  0  0  0999 V2000
    1.5850   -0.3852   -1.5081 O   0  0  0  0  0  0  0  0  0  0  0  0
    0.6947   -0.1622   -0.4504 C   0  0  0  0  0  0  0  0  0  0  0  0
   -0.2356   -1.2975   -0.1707 C   0  0  0  0  0  0  0  0  0  0  0  0
   -1.4529   -1.0031    0.2945 O   0  0  0  0  0  0  0  0  0  0  0  0
   -1.8945    0.2447    0.3986 C   0  0  0  0  0  0  0  0  0  0  0  0
   -1.0339    1.2893    0.3885 O   0  0  0  0  0  0  0  0  0  0  0  0
    0.1517    1.1577   -0.2358 C   0  0  0  0  0  0  0  0  0  0  0  0
    1.2921    0.6318    0.6647 C   0  0  0  0  0  0  0  0  0  0  0  0
    2.3706   -0.8503   -1.0888 H   0  0  0  0  0  0  0  0  0  0  0  0
    0.2887   -1.9681    0.5722 H   0  0  0  0  0  0  0  0  0  0  0  0
   -0.3356   -1.9335   -1.0854 H   0  0  0  0  0  0  0  0  0  0  0  0
   -2.6645    0.4318   -0.4100 H   0  0  0  0  0  0  0  0  0  0  0  0
   -2.5062    0.3377    1.3473 H   0  0  0  0  0  0  0  0  0  0  0  0
    0.4214    1.9572   -0.9531 H   0  0  0  0  0  0  0  0  0  0  0  0
    2.2639    1.1341    0.5205 H   0  0  0  0  0  0  0  0  0  0  0  0
    1.0552    0.4157    1.7159 H   0  0  0  0  0  0  0  0  0  0  0  0
  1  2  1  0
  2  3  1  0
  3  4  1  0
  4  5  1  0
  5  6  1  0
  6  7  1  0
  7  8  1  0
  7  2  1  0
  8  2  1  0
  1  9  1  0
  3 10  1  0
  3 11  1  0
  5 12  1  0
  5 13  1  0
  7 14  1  0
  8 15  1  0
  8 16  1  0
M  END
