
     RDKit          3D

 19 21  0  0  0  0  0  0  0  0999 V2000
   -0.3184    2.1729   -1.1772 O   0  0  0  0  0  0  0  0  0  0  0  0
   -0.1929    0.9843   -0.4427 C   0  0  0  0  0  0  0  0  0  0  0  0
   -1.4523    0.3255    0.0095 C   0  0  0  0  0  0  0  0  0  0  0  0
   -1.4541   -1.1692   -0.1443 C   0  0  0  0  0  0  0  0  0  0  0  0
   -0.3326   -1.7935    0.3120 O   0  0  0  0  0  0  0  0  0  0  0  0
    0.8556   -1.1929    0.0073 C   0  0  0  0  0  0  0  0  0  0  0  0
    1.3316   -0.3359    1.1758 C   0  0  0  0  0  0  0  0  0  0  0  0
    1.0622    0.8718    0.3345 C   0  0  0  0  0  0  0  0  0  0  0  0
    0.7730   -0.0270   -0.9083 C   0  0  0  0  0  0  0  0  0  0  0  0
   -0.2319    2.9272   -0.5119 H   0  0  0  0  0  0  0  0  0  0  0  0
   -1.7699    0.6309    1.0370 H   0  0  0  0  0  0  0  0  0  0  0  0
   -2.2810    0.7076   -0.6579 H   0  0  0  0  0  0  0  0  0  0  0  0
   -1.6818   -1.4915   -1.1866 H   0  0  0  0  0  0  0  0  0  0  0  0
   -2.3181   -1.5424    0.4810 H   0  0  0  0  0  0  0  0  0  0  0  0
    1.6387   -1.9264   -0.3049 H   0  0  0  0  0  0  0  0  0  0  0  0
    2.3882   -0.5081    1.4238 H   0  0  0  0  0  0  0  0  0  0  0  0
    0.6543   -0.3693    2.0663 H   0  0  0  0  0  0  0  0  0  0  0  0
    1.8584    1.6106    0.2214 H   0  0  0  0  0  0  0  0  0  0  0  0
    1.4711    0.1254   -1.7349 H   0  0  0  0  0  0  0  0  0  0  0  0
  1  2  1  0
  2  3  1  0
  3  4  1  0
  4  5  1  0
  5  6  1  0
  6  7  1  0
  7  8  1  0
  8  9  1  0
  8  2  1  0
  9  2  1  0
  9  6  1  0
  1 10  1  0
  3 11  1  0
  3 12  1  0
  4 13  1  0
  4 14  1  0
  6 15  1  0
  7 16  1  0
  7 17  1  0
  8 18  1  0
  9 19  1  0
M  END
