
     RDKit          3D

 19 22  0  0  0  0  0  0  0  0999 V2000
   -1.5257    1.0548    1.3126 O   0  0  0  0  0  0  0  0  0  0  0  0
   -1.0750    0.2545    0.4695 C   0  0  0  0  0  0  0  0  0  0  0  0
   -1.8255   -0.7374   -0.3794 C   0  0  0  0  0  0  0  0  0  0  0  0
   -0.4002   -0.8734   -0.8419 C   0  0  0  0  0  0  0  0  0  0  0  0
   -0.3187    0.6137   -0.8076 C   0  0  0  0  0  0  0  0  0  0  0  0
    1.0773    0.9481   -0.4170 C   0  0  0  0  0  0  0  0  0  0  0  0
    2.1604   -0.0739   -0.4945 C   0  0  0  0  0  0  0  0  0  0  0  0
    1.2975   -0.1195    0.7104 C   0  0  0  0  0  0  0  0  0  0  0  0
   -0.0355   -0.8070    0.6195 C   0  0  0  0  0  0  0  0  0  0  0  0
   -1.7402    1.9595    1.0115 H   0  0  0  0  0  0  0  0  0  0  0  0
   -2.1872   -1.5739    0.2539 H   0  0  0  0  0  0  0  0  0  0  0  0
   -2.5357   -0.3151   -1.0969 H   0  0  0  0  0  0  0  0  0  0  0  0
   -0.0397   -1.5109   -1.5240 H   0  0  0  0  0  0  0  0  0  0  0  0
   -0.8365    1.2004   -1.5351 H   0  0  0  0  0  0  0  0  0  0  0  0
    1.3535    1.9817   -0.1605 H   0  0  0  0  0  0  0  0  0  0  0  0
    3.1801    0.2873   -0.3450 H   0  0  0  0  0  0  0  0  0  0  0  0
    2.0844   -0.9424   -1.1698 H   0  0  0  0  0  0  0  0  0  0  0  0
    1.5952    0.3146    1.6685 H   0  0  0  0  0  0  0  0  0  0  0  0
   -0.2285   -1.6612    1.2379 H   0  0  0  0  0  0  0  0  0  0  0  0
  1  2  1  0
  2  3  1  0
  3  4  1  0
  4  5  1  0
  5  6  1  0
  6  7  1  0
  7  8  1  0
  8  9  1  0
  5  2  1  0
  8  6  1  0
  9  2  1  0
  9  4  1  0
  1 10  1  0
  3 11  1  0
  3 12  1  0
  4 13  1  0
  5 14  1  0
  6 15  1  0
  7 16  1  0
  7 17  1  0
  8 18  1  0
  9 19  1  0
M  END
