
     RDKit          3D

 17 19  0  0  0  0  0  0  0  0999 V2000
    2.4769    0.4377   -0.1611 O   0  0  0  0  0  0  0  0  0  0  0  0
    1.1298    0.2862    0.0461 C   0  0  0  0  0  0  0  0  0  0  0  0
    0.3161    1.5213    0.2238 C   0  0  0  0  0  0  0  0  0  0  0  0
   -0.9774    1.3521    0.4628 C   0  0  0  0  0  0  0  0  0  0  0  0
   -1.4382   -0.0642    0.5201 C   0  0  0  0  0  0  0  0  0  0  0  0
   -1.0404   -0.6828   -0.8074 C   0  0  0  0  0  0  0  0  0  0  0  0
    0.4423   -0.7968   -0.6694 C   0  0  0  0  0  0  0  0  0  0  0  0
    0.6323   -0.8441    0.8190 C   0  0  0  0  0  0  0  0  0  0  0  0
   -0.5950   -0.7065    1.4140 O   0  0  0  0  0  0  0  0  0  0  0  0
    2.7991   -0.2064   -0.8137 H   0  0  0  0  0  0  0  0  0  0  0  0
    0.8051    2.4823    0.1518 H   0  0  0  0  0  0  0  0  0  0  0  0
   -1.6803    2.1555    0.6110 H   0  0  0  0  0  0  0  0  0  0  0  0
   -2.4897   -0.1822    0.7653 H   0  0  0  0  0  0  0  0  0  0  0  0
   -1.3163   -0.0621   -1.6642 H   0  0  0  0  0  0  0  0  0  0  0  0
   -1.4639   -1.7058   -0.8264 H   0  0  0  0  0  0  0  0  0  0  0  0
    1.0353   -1.4536   -1.3264 H   0  0  0  0  0  0  0  0  0  0  0  0
    1.3643   -1.5307    1.2545 H   0  0  0  0  0  0  0  0  0  0  0  0
  1  2  1  0
  2  3  1  0
  3  4  2  0
  4  5  1  0
  5  6  1  0
  6  7  1  0
  7  8  1  0
  8  9  1  0
  7  2  1  0
  8  2  1  0
  9  5  1  0
  1 10  1  0
  3 11  1  0
  4 12  1  0
  5 13  1  0
  6 14  1  0
  6 15  1  0
  7 16  1  0
  8 17  1  0
M  END
