
     RDKit          3D

 19 21  0  0  0  0  0  0  0  0999 V2000
    2.0788    0.6792   -1.3331 O   0  0  0  0  0  0  0  0  0  0  0  0
    0.9899    0.5655   -0.4927 C   0  0  0  0  0  0  0  0  0  0  0  0
    1.1251    0.7537    0.9627 C   0  0  0  0  0  0  0  0  0  0  0  0
    1.0018   -0.6421    0.5034 C   0  0  0  0  0  0  0  0  0  0  0  0
   -0.2945   -1.2930    0.1911 C   0  0  0  0  0  0  0  0  0  0  0  0
   -1.4940   -0.5169    0.6878 C   0  0  0  0  0  0  0  0  0  0  0  0
   -1.4544    0.7003   -0.2057 C   0  0  0  0  0  0  0  0  0  0  0  0
   -0.3297    0.3632   -1.1597 C   0  0  0  0  0  0  0  0  0  0  0  0
   -0.4066   -1.0495   -1.2002 O   0  0  0  0  0  0  0  0  0  0  0  0
    2.6511   -0.1053   -1.1966 H   0  0  0  0  0  0  0  0  0  0  0  0
    2.1539    1.0394    1.2964 H   0  0  0  0  0  0  0  0  0  0  0  0
    0.3482    1.2527    1.5786 H   0  0  0  0  0  0  0  0  0  0  0  0
    1.8916   -1.2731    0.4129 H   0  0  0  0  0  0  0  0  0  0  0  0
   -0.3434   -2.3602    0.4120 H   0  0  0  0  0  0  0  0  0  0  0  0
   -2.3942   -1.1070    0.3666 H   0  0  0  0  0  0  0  0  0  0  0  0
   -1.4714   -0.2938    1.7510 H   0  0  0  0  0  0  0  0  0  0  0  0
   -1.2030    1.6247    0.3069 H   0  0  0  0  0  0  0  0  0  0  0  0
   -2.4155    0.8601   -0.7352 H   0  0  0  0  0  0  0  0  0  0  0  0
   -0.4339    0.8022   -2.1461 H   0  0  0  0  0  0  0  0  0  0  0  0
  1  2  1  0
  2  3  1  0
  3  4  1  0
  4  5  1  0
  5  6  1  0
  6  7  1  0
  7  8  1  0
  8  9  1  0
  4  2  1  0
  9  5  1  0
  8  2  1  0
  1 10  1  0
  3 11  1  0
  3 12  1  0
  4 13  1  0
  5 14  1  0
  6 15  1  0
  6 16  1  0
  7 17  1  0
  7 18  1  0
  8 19  1  0
M  END
