
     RDKit          2D

 15 18  0  0  0  0  0  0  0  0999 V2000
   -0.0448   -2.1989    0.0000 O   0  0  0  0  0  0  0  0  0  0  0  0
   -0.4330   -0.7500    0.0000 C   0  0  0  0  0  0  0  0  0  0  0  0
   -1.9330   -0.7500    0.0000 C   0  0  0  0  0  0  0  0  0  0  0  0
   -3.3596   -1.2135    0.0000 O   0  0  0  0  0  0  0  0  0  0  0  0
   -4.2413    0.0000    0.0000 C   0  0  0  0  0  0  0  0  0  0  0  0
   -3.3596    1.2135    0.0000 C   0  0  0  0  0  0  0  0  0  0  0  0
   -1.9330    0.7500    0.0000 C   0  0  0  0  0  0  0  0  0  0  0  0
   -0.4330    0.7500    0.0000 C   0  0  0  0  0  0  0  0  0  0  0  0
    0.8660    0.0000    0.0000 C   0  0  0  0  0  0  0  0  0  0  0  0
    1.4041   -2.5871    0.0000 H   0  0  0  0  0  0  0  0  0  0  0  0
   -1.6984   -2.2315    0.0000 H   0  0  0  0  0  0  0  0  0  0  0  0
   -5.7413    0.0000    0.0000 H   0  0  0  0  0  0  0  0  0  0  0  0
   -3.8231    2.6401    0.0000 H   0  0  0  0  0  0  0  0  0  0  0  0
   -0.0448    2.1989    0.0000 H   0  0  0  0  0  0  0  0  0  0  0  0
    2.3660    0.0000    0.0000 H   0  0  0  0  0  0  0  0  0  0  0  0
  1  2  1  0
  2  3  1  0
  3  4  1  0
  4  5  1  0
  5  6  1  0
  6  7  2  0
  7  8  1  0
  8  9  1  0
  8  2  1  0
  9  2  1  0
  7  3  1  0
  9  5  1  0
  1 10  1  0
  3 11  1  0
  5 12  1  0
  6 13  1  0
  8 14  1  0
  9 15  1  0
M  END
