
     RDKit          3D

 16 18  0  0  0  0  0  0  0  0999 V2000
    0.8458    1.6831   -0.6002 O   0  0  0  0  0  0  0  0  0  0  0  0
    0.5157    0.4408   -0.2555 C   0  0  0  0  0  0  0  0  0  0  0  0
    1.5413   -0.6293   -0.1225 C   0  0  0  0  0  0  0  0  0  0  0  0
    0.7143   -1.7388    0.1850 O   0  0  0  0  0  0  0  0  0  0  0  0
   -0.5347   -1.1739    0.2850 C   0  0  0  0  0  0  0  0  0  0  0  0
   -0.6669   -0.2280   -0.8747 C   0  0  0  0  0  0  0  0  0  0  0  0
   -1.5142    0.6223    0.0296 C   0  0  0  0  0  0  0  0  0  0  0  0
   -0.3861    0.1882    0.9137 C   0  0  0  0  0  0  0  0  0  0  0  0
    1.6329    1.9895   -0.1206 H   0  0  0  0  0  0  0  0  0  0  0  0
    2.1414   -0.4021    0.8039 H   0  0  0  0  0  0  0  0  0  0  0  0
    2.1601   -0.8064   -1.0034 H   0  0  0  0  0  0  0  0  0  0  0  0
   -1.3750   -1.7777    0.5617 H   0  0  0  0  0  0  0  0  0  0  0  0
   -0.8283   -0.4542   -1.8333 H   0  0  0  0  0  0  0  0  0  0  0  0
   -2.4924    0.1877    0.3279 H   0  0  0  0  0  0  0  0  0  0  0  0
   -1.5247    1.7010   -0.1722 H   0  0  0  0  0  0  0  0  0  0  0  0
   -0.2293    0.3976    1.8758 H   0  0  0  0  0  0  0  0  0  0  0  0
  1  2  1  0
  2  3  1  0
  3  4  1  0
  4  5  1  0
  5  6  1  0
  6  7  1  0
  7  8  1  0
  6  2  1  0
  8  2  1  0
  8  5  1  0
  1  9  1  0
  3 10  1  0
  3 11  1  0
  5 12  1  0
  6 13  1  0
  7 14  1  0
  7 15  1  0
  8 16  1  0
M  END
