
     RDKit          3D

 19 20  0  0  0  0  0  0  0  0999 V2000
    0.2207    1.6761    0.7902 O   0  0  0  0  0  0  0  0  0  0  0  0
    0.0686    0.6339   -0.0911 C   0  0  0  0  0  0  0  0  0  0  0  0
   -1.1335    0.7291   -0.9619 C   0  0  0  0  0  0  0  0  0  0  0  0
   -2.1622    0.0894   -0.4203 C   0  0  0  0  0  0  0  0  0  0  0  0
   -1.6995   -0.4809    0.8699 C   0  0  0  0  0  0  0  0  0  0  0  0
   -0.2702   -0.6532    0.6480 C   0  0  0  0  0  0  0  0  0  0  0  0
    0.8158   -1.3569    0.7624 C   0  0  0  0  0  0  0  0  0  0  0  0
    1.9898   -0.6695    0.1396 C   0  0  0  0  0  0  0  0  0  0  0  0
    1.3131    0.2845   -0.8654 C   0  0  0  0  0  0  0  0  0  0  0  0
    0.2028    2.5172    0.3039 H   0  0  0  0  0  0  0  0  0  0  0  0
   -1.1652    1.2480   -1.9061 H   0  0  0  0  0  0  0  0  0  0  0  0
   -3.1806   -0.0126   -0.8337 H   0  0  0  0  0  0  0  0  0  0  0  0
   -1.8322    0.3265    1.6202 H   0  0  0  0  0  0  0  0  0  0  0  0
   -2.2360   -1.4067    1.1439 H   0  0  0  0  0  0  0  0  0  0  0  0
    0.9636   -2.3469    1.2389 H   0  0  0  0  0  0  0  0  0  0  0  0
    2.6137   -1.3488   -0.4517 H   0  0  0  0  0  0  0  0  0  0  0  0
    2.5377   -0.0335    0.8392 H   0  0  0  0  0  0  0  0  0  0  0  0
    1.9408    1.1406   -1.1015 H   0  0  0  0  0  0  0  0  0  0  0  0
    1.0128   -0.3361   -1.7245 H   0  0  0  0  0  0  0  0  0  0  0  0
  1  2  1  0
  2  3  1  0
  3  4  2  0
  4  5  1  0
  5  6  1  0
  6  7  2  0
  7  8  1  0
  8  9  1  0
  6  2  1  0
  9  2  1  0
  1 10  1  0
  3 11  1  0
  4 12  1  0
  5 13  1  0
  5 14  1  0
  7 15  1  0
  8 16  1  0
  8 17  1  0
  9 18  1  0
  9 19  1  0
M  END
