
     RDKit          3D

 19 21  0  0  0  0  0  0  0  0999 V2000
    0.9828   -1.2047   -1.2655 O   0  0  0  0  0  0  0  0  0  0  0  0
    1.1016   -0.4203   -0.1532 C   0  0  0  0  0  0  0  0  0  0  0  0
    2.2788    0.4251    0.1312 C   0  0  0  0  0  0  0  0  0  0  0  0
    1.1354    1.1142   -0.4549 C   0  0  0  0  0  0  0  0  0  0  0  0
   -0.2262    1.1588    0.1392 C   0  0  0  0  0  0  0  0  0  0  0  0
   -1.1976    0.9110   -0.8231 O   0  0  0  0  0  0  0  0  0  0  0  0
   -2.1360    0.0686   -0.2804 C   0  0  0  0  0  0  0  0  0  0  0  0
   -1.3118   -0.9693    0.4674 C   0  0  0  0  0  0  0  0  0  0  0  0
   -0.0678   -0.2170    0.7856 C   0  0  0  0  0  0  0  0  0  0  0  0
    1.4056   -2.0841   -1.0967 H   0  0  0  0  0  0  0  0  0  0  0  0
    2.5048    0.5509    1.2288 H   0  0  0  0  0  0  0  0  0  0  0  0
    3.1609    0.2693   -0.4884 H   0  0  0  0  0  0  0  0  0  0  0  0
    1.1954    1.3975   -1.5198 H   0  0  0  0  0  0  0  0  0  0  0  0
   -0.4478    1.9623    0.8493 H   0  0  0  0  0  0  0  0  0  0  0  0
   -2.7257   -0.3860   -1.0978 H   0  0  0  0  0  0  0  0  0  0  0  0
   -2.8536    0.5913    0.3810 H   0  0  0  0  0  0  0  0  0  0  0  0
   -1.8500   -1.1465    1.4433 H   0  0  0  0  0  0  0  0  0  0  0  0
   -1.1659   -1.8914   -0.0959 H   0  0  0  0  0  0  0  0  0  0  0  0
    0.2170   -0.1297    1.8514 H   0  0  0  0  0  0  0  0  0  0  0  0
  1  2  1  0
  2  3  1  0
  3  4  1  0
  4  5  1  0
  5  6  1  0
  6  7  1  0
  7  8  1  0
  8  9  1  0
  4  2  1  0
  9  5  1  0
  9  2  1  0
  1 10  1  0
  3 11  1  0
  3 12  1  0
  4 13  1  0
  5 14  1  0
  7 15  1  0
  7 16  1  0
  8 17  1  0
  8 18  1  0
  9 19  1  0
M  END
