
     RDKit          3D

 17 19  0  0  0  0  0  0  0  0999 V2000
    1.1014   -1.4335   -1.4484 O   0  0  0  0  0  0  0  0  0  0  0  0
    0.5337   -0.6730   -0.4656 C   0  0  0  0  0  0  0  0  0  0  0  0
   -0.3003   -1.4951    0.4709 C   0  0  0  0  0  0  0  0  0  0  0  0
   -1.3297   -0.7627    0.8233 C   0  0  0  0  0  0  0  0  0  0  0  0
   -1.3359    0.5641    0.2125 C   0  0  0  0  0  0  0  0  0  0  0  0
   -0.1657    1.4878    0.1379 C   0  0  0  0  0  0  0  0  0  0  0  0
    1.1295    1.1988    0.7295 C   0  0  0  0  0  0  0  0  0  0  0  0
    1.5638    0.0037    0.4194 C   0  0  0  0  0  0  0  0  0  0  0  0
   -0.3085    0.4607   -0.9046 C   0  0  0  0  0  0  0  0  0  0  0  0
    0.5953   -1.2538   -2.3040 H   0  0  0  0  0  0  0  0  0  0  0  0
   -0.0433   -2.4865    0.7545 H   0  0  0  0  0  0  0  0  0  0  0  0
   -2.0965   -1.1354    1.5115 H   0  0  0  0  0  0  0  0  0  0  0  0
   -2.3475    0.9780   -0.0642 H   0  0  0  0  0  0  0  0  0  0  0  0
   -0.4680    2.5507   -0.0490 H   0  0  0  0  0  0  0  0  0  0  0  0
    1.7022    1.8863    1.3685 H   0  0  0  0  0  0  0  0  0  0  0  0
    2.4804   -0.4912    0.7006 H   0  0  0  0  0  0  0  0  0  0  0  0
   -0.7108    0.6011   -1.8928 H   0  0  0  0  0  0  0  0  0  0  0  0
  1  2  1  0
  2  3  1  0
  3  4  2  0
  4  5  1  0
  5  6  1  0
  6  7  1  0
  7  8  2  0
  6  9  1  0
  8  2  1  0
  9  2  1  0
  9  5  1  0
  1 10  1  0
  3 11  1  0
  4 12  1  0
  5 13  1  0
  6 14  1  0
  7 15  1  0
  8 16  1  0
  9 17  1  0
M  END
