
     RDKit          3D

 21 22  0  0  0  0  0  0  0  0999 V2000
   -1.3160   -1.7524   -1.1294 O   0  0  0  0  0  0  0  0  0  0  0  0
   -0.5163   -0.8156   -0.5324 C   0  0  0  0  0  0  0  0  0  0  0  0
    0.9400   -1.1153   -0.6341 C   0  0  0  0  0  0  0  0  0  0  0  0
    1.8161   -0.2209    0.1756 C   0  0  0  0  0  0  0  0  0  0  0  0
    1.5011    1.1157    0.0971 O   0  0  0  0  0  0  0  0  0  0  0  0
    0.4532    1.5077    0.8979 C   0  0  0  0  0  0  0  0  0  0  0  0
   -0.8833    1.0211    0.4197 C   0  0  0  0  0  0  0  0  0  0  0  0
   -0.8639    0.5732   -1.0170 C   0  0  0  0  0  0  0  0  0  0  0  0
   -0.9928   -0.4477    0.8256 C   0  0  0  0  0  0  0  0  0  0  0  0
   -2.2526   -1.3735   -1.1370 H   0  0  0  0  0  0  0  0  0  0  0  0
    1.1070   -2.1543   -0.3080 H   0  0  0  0  0  0  0  0  0  0  0  0
    1.2425   -1.0750   -1.7106 H   0  0  0  0  0  0  0  0  0  0  0  0
    1.8979   -0.5999    1.2246 H   0  0  0  0  0  0  0  0  0  0  0  0
    2.8622   -0.3267   -0.2373 H   0  0  0  0  0  0  0  0  0  0  0  0
    0.5981    1.1632    1.9550 H   0  0  0  0  0  0  0  0  0  0  0  0
    0.4447    2.6204    0.9343 H   0  0  0  0  0  0  0  0  0  0  0  0
   -1.7386    1.6458    0.6886 H   0  0  0  0  0  0  0  0  0  0  0  0
   -0.0104    0.9582   -1.6272 H   0  0  0  0  0  0  0  0  0  0  0  0
   -1.8591    0.6439   -1.5239 H   0  0  0  0  0  0  0  0  0  0  0  0
   -2.0807   -0.6783    0.9547 H   0  0  0  0  0  0  0  0  0  0  0  0
   -0.3490   -0.6897    1.6840 H   0  0  0  0  0  0  0  0  0  0  0  0
  1  2  1  0
  2  3  1  0
  3  4  1  0
  4  5  1  0
  5  6  1  0
  6  7  1  0
  7  8  1  0
  7  9  1  0
  8  2  1  0
  9  2  1  0
  1 10  1  0
  3 11  1  0
  3 12  1  0
  4 13  1  0
  4 14  1  0
  6 15  1  0
  6 16  1  0
  7 17  1  0
  8 18  1  0
  8 19  1  0
  9 20  1  0
  9 21  1  0
M  END
