
     RDKit          3D

 19 21  0  0  0  0  0  0  0  0999 V2000
   -2.0642    1.1987    0.4915 O   0  0  0  0  0  0  0  0  0  0  0  0
   -1.5735   -0.0053    0.0785 C   0  0  0  0  0  0  0  0  0  0  0  0
   -2.1258   -0.6770   -1.1690 C   0  0  0  0  0  0  0  0  0  0  0  0
   -0.7971   -0.7358   -1.6350 O   0  0  0  0  0  0  0  0  0  0  0  0
   -0.2605   -0.2402   -0.4752 C   0  0  0  0  0  0  0  0  0  0  0  0
    0.8657    0.7443   -0.4830 C   0  0  0  0  0  0  0  0  0  0  0  0
    2.1829    0.3524   -1.0999 C   0  0  0  0  0  0  0  0  0  0  0  0
    2.0629    0.2948    0.3763 C   0  0  0  0  0  0  0  0  0  0  0  0
   -0.6480   -0.8355    0.8651 C   0  0  0  0  0  0  0  0  0  0  0  0
   -1.8566    1.3402    1.4409 H   0  0  0  0  0  0  0  0  0  0  0  0
   -2.4407   -1.7186   -0.9230 H   0  0  0  0  0  0  0  0  0  0  0  0
   -2.8059   -0.0806   -1.7656 H   0  0  0  0  0  0  0  0  0  0  0  0
    0.6082    1.8065   -0.3830 H   0  0  0  0  0  0  0  0  0  0  0  0
    2.8103    1.1662   -1.5278 H   0  0  0  0  0  0  0  0  0  0  0  0
    2.2463   -0.6241   -1.6357 H   0  0  0  0  0  0  0  0  0  0  0  0
    2.0364   -0.6845    0.8474 H   0  0  0  0  0  0  0  0  0  0  0  0
    2.5932    1.0851    0.9490 H   0  0  0  0  0  0  0  0  0  0  0  0
   -0.1120   -0.4292    1.7296 H   0  0  0  0  0  0  0  0  0  0  0  0
   -0.7216   -1.9573    0.8105 H   0  0  0  0  0  0  0  0  0  0  0  0
  1  2  1  0
  2  3  1  0
  3  4  1  0
  4  5  1  0
  5  6  1  0
  6  7  1  0
  7  8  1  0
  5  9  1  0
  5  2  1  0
  8  6  1  0
  9  2  1  0
  1 10  1  0
  3 11  1  0
  3 12  1  0
  6 13  1  0
  7 14  1  0
  7 15  1  0
  8 16  1  0
  8 17  1  0
  9 18  1  0
  9 19  1  0
M  END
