
     RDKit          3D

 17 20  0  0  0  0  0  0  0  0999 V2000
    0.7085    1.8373    0.6349 O   0  0  0  0  0  0  0  0  0  0  0  0
    0.6049    0.6611    0.2134 C   0  0  0  0  0  0  0  0  0  0  0  0
    1.7113   -0.2796   -0.1933 C   0  0  0  0  0  0  0  0  0  0  0  0
    0.4587   -1.0871   -0.3815 C   0  0  0  0  0  0  0  0  0  0  0  0
   -0.1467    0.1563   -0.9783 C   0  0  0  0  0  0  0  0  0  0  0  0
   -1.6017    0.1441   -0.5933 C   0  0  0  0  0  0  0  0  0  0  0  0
   -2.1736   -1.0561   -0.1692 O   0  0  0  0  0  0  0  0  0  0  0  0
   -1.4809   -0.4145    0.8366 C   0  0  0  0  0  0  0  0  0  0  0  0
    0.0094   -0.5241    0.9289 C   0  0  0  0  0  0  0  0  0  0  0  0
    0.5917    2.5488   -0.0242 H   0  0  0  0  0  0  0  0  0  0  0  0
    2.3095   -0.6587    0.6639 H   0  0  0  0  0  0  0  0  0  0  0  0
    2.2693   -0.0165   -1.0999 H   0  0  0  0  0  0  0  0  0  0  0  0
    0.3772   -2.0233   -0.7190 H   0  0  0  0  0  0  0  0  0  0  0  0
    0.1383    0.4579   -1.9608 H   0  0  0  0  0  0  0  0  0  0  0  0
   -2.1871    1.0616   -0.6327 H   0  0  0  0  0  0  0  0  0  0  0  0
   -2.0531    0.0552    1.6362 H   0  0  0  0  0  0  0  0  0  0  0  0
    0.4643   -0.8623    1.8385 H   0  0  0  0  0  0  0  0  0  0  0  0
  1  2  1  0
  2  3  1  0
  3  4  1  0
  4  5  1  0
  5  6  1  0
  6  7  1  0
  7  8  1  0
  8  9  1  0
  5  2  1  0
  8  6  1  0
  9  2  1  0
  9  4  1  0
  1 10  1  0
  3 11  1  0
  3 12  1  0
  4 13  1  0
  5 14  1  0
  6 15  1  0
  8 16  1  0
  9 17  1  0
M  END
