
     RDKit          3D

 16 18  0  0  0  0  0  0  0  0999 V2000
    2.4366   -0.3247   -0.0020 O   0  0  0  0  0  0  0  0  0  0  0  0
    1.1098   -0.0328    0.1456 C   0  0  0  0  0  0  0  0  0  0  0  0
    0.6866    1.3481    0.4958 C   0  0  0  0  0  0  0  0  0  0  0  0
   -0.5355    1.5721    0.0357 C   0  0  0  0  0  0  0  0  0  0  0  0
   -1.0420    0.3510   -0.6684 C   0  0  0  0  0  0  0  0  0  0  0  0
   -1.3670   -0.7173    0.3686 C   0  0  0  0  0  0  0  0  0  0  0  0
    0.0883   -1.0880    0.3556 C   0  0  0  0  0  0  0  0  0  0  0  0
    0.2072   -0.4031   -0.9510 C   0  0  0  0  0  0  0  0  0  0  0  0
    2.7956   -0.9450    0.6952 H   0  0  0  0  0  0  0  0  0  0  0  0
    1.3123    2.0358    1.0451 H   0  0  0  0  0  0  0  0  0  0  0  0
   -1.0517    2.5187    0.1742 H   0  0  0  0  0  0  0  0  0  0  0  0
   -1.7673    0.5034   -1.4553 H   0  0  0  0  0  0  0  0  0  0  0  0
   -1.9708   -1.5632   -0.0445 H   0  0  0  0  0  0  0  0  0  0  0  0
   -1.7593   -0.2457    1.2693 H   0  0  0  0  0  0  0  0  0  0  0  0
    0.3929   -2.1461    0.4156 H   0  0  0  0  0  0  0  0  0  0  0  0
    0.4641   -0.8633   -1.8795 H   0  0  0  0  0  0  0  0  0  0  0  0
  1  2  1  0
  2  3  1  0
  3  4  2  0
  4  5  1  0
  5  6  1  0
  6  7  1  0
  7  8  1  0
  7  2  1  0
  8  2  1  0
  8  5  1  0
  1  9  1  0
  3 10  1  0
  4 11  1  0
  5 12  1  0
  6 13  1  0
  6 14  1  0
  7 15  1  0
  8 16  1  0
M  END
