
     RDKit          3D

 18 20  0  0  0  0  0  0  0  0999 V2000
   -1.6024   -1.9253   -0.0787 O   0  0  0  0  0  0  0  0  0  0  0  0
   -0.7878   -0.8201   -0.0956 C   0  0  0  0  0  0  0  0  0  0  0  0
   -1.4495    0.4770   -0.5110 C   0  0  0  0  0  0  0  0  0  0  0  0
   -0.2881    1.4351   -0.4875 C   0  0  0  0  0  0  0  0  0  0  0  0
    0.6503    0.8983    0.5402 C   0  0  0  0  0  0  0  0  0  0  0  0
    1.6944    0.0130   -0.1596 C   0  0  0  0  0  0  0  0  0  0  0  0
    0.6512   -1.0417   -0.2680 C   0  0  0  0  0  0  0  0  0  0  0  0
    0.0490   -0.3881    1.0070 C   0  0  0  0  0  0  0  0  0  0  0  0
   -1.2869   -2.5929    0.5693 H   0  0  0  0  0  0  0  0  0  0  0  0
   -1.9653    0.4248   -1.4672 H   0  0  0  0  0  0  0  0  0  0  0  0
   -2.1280    0.7884    0.3309 H   0  0  0  0  0  0  0  0  0  0  0  0
   -0.5937    2.4833   -0.3206 H   0  0  0  0  0  0  0  0  0  0  0  0
    0.1483    1.4194   -1.5272 H   0  0  0  0  0  0  0  0  0  0  0  0
    1.0522    1.5802    1.2816 H   0  0  0  0  0  0  0  0  0  0  0  0
    2.0171    0.5247   -1.0656 H   0  0  0  0  0  0  0  0  0  0  0  0
    2.5045   -0.3001    0.5372 H   0  0  0  0  0  0  0  0  0  0  0  0
    1.0132   -2.0715   -0.1841 H   0  0  0  0  0  0  0  0  0  0  0  0
    0.3214   -0.9044    1.8989 H   0  0  0  0  0  0  0  0  0  0  0  0
  1  2  1  0
  2  3  1  0
  3  4  1  0
  4  5  1  0
  5  6  1  0
  6  7  1  0
  7  8  1  0
  7  2  1  0
  8  2  1  0
  8  5  1  0
  1  9  1  0
  3 10  1  0
  3 11  1  0
  4 12  1  0
  4 13  1  0
  5 14  1  0
  6 15  1  0
  6 16  1  0
  7 17  1  0
  8 18  1  0
M  END
