
     RDKit          3D

 19 21  0  0  0  0  0  0  0  0999 V2000
   -1.7437    1.7074    0.6404 O   0  0  0  0  0  0  0  0  0  0  0  0
   -0.8881    0.7301    0.2342 C   0  0  0  0  0  0  0  0  0  0  0  0
   -0.7057   -0.5455    0.9985 C   0  0  0  0  0  0  0  0  0  0  0  0
   -0.9475   -1.3595   -0.2254 C   0  0  0  0  0  0  0  0  0  0  0  0
   -1.0382   -0.0454   -1.0074 C   0  0  0  0  0  0  0  0  0  0  0  0
    0.1084    0.8617   -0.8154 C   0  0  0  0  0  0  0  0  0  0  0  0
    1.4225    0.1731   -0.5477 C   0  0  0  0  0  0  0  0  0  0  0  0
    1.5996   -0.3232    0.8244 C   0  0  0  0  0  0  0  0  0  0  0  0
    0.5158   -0.5688    1.5764 O   0  0  0  0  0  0  0  0  0  0  0  0
   -1.3642    2.6367    0.5932 H   0  0  0  0  0  0  0  0  0  0  0  0
   -1.5149   -0.6813    1.7407 H   0  0  0  0  0  0  0  0  0  0  0  0
   -0.0530   -1.9075   -0.5959 H   0  0  0  0  0  0  0  0  0  0  0  0
   -1.8689   -1.9296   -0.2999 H   0  0  0  0  0  0  0  0  0  0  0  0
   -1.8323    0.1013   -1.7279 H   0  0  0  0  0  0  0  0  0  0  0  0
    0.0997    1.8117   -1.4028 H   0  0  0  0  0  0  0  0  0  0  0  0
    1.4968   -0.6918   -1.2684 H   0  0  0  0  0  0  0  0  0  0  0  0
    2.2245    0.8759   -0.8772 H   0  0  0  0  0  0  0  0  0  0  0  0
    2.2310   -1.2580    0.7864 H   0  0  0  0  0  0  0  0  0  0  0  0
    2.2584    0.4128    1.3739 H   0  0  0  0  0  0  0  0  0  0  0  0
  1  2  1  0
  2  3  1  0
  3  4  1  0
  4  5  1  0
  5  6  1  0
  6  7  1  0
  7  8  1  0
  8  9  1  0
  5  2  1  0
  6  2  1  0
  9  3  1  0
  1 10  1  0
  3 11  1  0
  4 12  1  0
  4 13  1  0
  5 14  1  0
  6 15  1  0
  7 16  1  0
  7 17  1  0
  8 18  1  0
  8 19  1  0
M  END
