
     RDKit          3D

 19 21  0  0  0  0  0  0  0  0999 V2000
    0.5090    1.2206    1.4354 O   0  0  0  0  0  0  0  0  0  0  0  0
   -0.1317    1.2510    0.2544 C   0  0  0  0  0  0  0  0  0  0  0  0
   -1.4821    0.6754    0.5130 C   0  0  0  0  0  0  0  0  0  0  0  0
   -1.1094   -0.8206    0.5942 C   0  0  0  0  0  0  0  0  0  0  0  0
   -0.2533   -0.9482   -0.6154 C   0  0  0  0  0  0  0  0  0  0  0  0
    1.1743   -1.2580   -0.3990 C   0  0  0  0  0  0  0  0  0  0  0  0
    1.9316   -0.1654   -0.3953 C   0  0  0  0  0  0  0  0  0  0  0  0
    1.0199    1.0033   -0.6167 C   0  0  0  0  0  0  0  0  0  0  0  0
   -0.1282    0.4789   -1.0382 C   0  0  0  0  0  0  0  0  0  0  0  0
    0.7297    0.3819    1.8395 H   0  0  0  0  0  0  0  0  0  0  0  0
   -2.2319    0.8324   -0.2905 H   0  0  0  0  0  0  0  0  0  0  0  0
   -1.9173    1.0665    1.4151 H   0  0  0  0  0  0  0  0  0  0  0  0
   -0.6593   -1.0814    1.5384 H   0  0  0  0  0  0  0  0  0  0  0  0
   -2.0295   -1.4397    0.4222 H   0  0  0  0  0  0  0  0  0  0  0  0
   -0.7042   -1.5933   -1.4069 H   0  0  0  0  0  0  0  0  0  0  0  0
    1.5359   -2.2977   -0.2593 H   0  0  0  0  0  0  0  0  0  0  0  0
    3.0103   -0.1518   -0.2552 H   0  0  0  0  0  0  0  0  0  0  0  0
    1.5438    1.9353   -0.9452 H   0  0  0  0  0  0  0  0  0  0  0  0
   -0.8076    0.9109   -1.7904 H   0  0  0  0  0  0  0  0  0  0  0  0
  1  2  1  0
  2  3  1  0
  3  4  1  0
  4  5  1  0
  5  6  1  0
  6  7  2  0
  7  8  1  0
  8  9  1  0
  8  2  1  0
  9  2  1  0
  9  5  1  0
  1 10  1  0
  3 11  1  0
  3 12  1  0
  4 13  1  0
  4 14  1  0
  5 15  1  0
  6 16  1  0
  7 17  1  0
  8 18  1  0
  9 19  1  0
M  END
