
     RDKit          3D

 21 22  0  0  0  0  0  0  0  0999 V2000
    2.0502   -1.2959   -0.4365 O   0  0  0  0  0  0  0  0  0  0  0  0
    0.9428   -0.5130   -0.1485 C   0  0  0  0  0  0  0  0  0  0  0  0
   -0.2671   -1.3275    0.0677 C   0  0  0  0  0  0  0  0  0  0  0  0
   -1.5317   -0.6633    0.3315 C   0  0  0  0  0  0  0  0  0  0  0  0
   -1.6888    0.7688   -0.0278 C   0  0  0  0  0  0  0  0  0  0  0  0
   -0.7551    1.6262    0.4498 O   0  0  0  0  0  0  0  0  0  0  0  0
    0.5088    1.5183   -0.0190 C   0  0  0  0  0  0  0  0  0  0  0  0
    0.7277    0.5847   -1.1474 C   0  0  0  0  0  0  0  0  0  0  0  0
    1.2307    0.5100    0.8917 C   0  0  0  0  0  0  0  0  0  0  0  0
    2.2167   -1.9869    0.2253 H   0  0  0  0  0  0  0  0  0  0  0  0
   -0.3485   -2.0171   -0.8258 H   0  0  0  0  0  0  0  0  0  0  0  0
   -0.0364   -2.0500    0.9076 H   0  0  0  0  0  0  0  0  0  0  0  0
   -2.3635   -1.2140   -0.2037 H   0  0  0  0  0  0  0  0  0  0  0  0
   -1.8199   -0.7689    1.4186 H   0  0  0  0  0  0  0  0  0  0  0  0
   -1.9217    0.9026   -1.1269 H   0  0  0  0  0  0  0  0  0  0  0  0
   -2.6658    1.0982    0.4493 H   0  0  0  0  0  0  0  0  0  0  0  0
    1.0525    2.4894   -0.0797 H   0  0  0  0  0  0  0  0  0  0  0  0
    1.6652    0.7836   -1.7052 H   0  0  0  0  0  0  0  0  0  0  0  0
   -0.0830    0.3785   -1.8382 H   0  0  0  0  0  0  0  0  0  0  0  0
    0.7802    0.3869    1.8785 H   0  0  0  0  0  0  0  0  0  0  0  0
    2.3068    0.7894    0.9385 H   0  0  0  0  0  0  0  0  0  0  0  0
  1  2  1  0
  2  3  1  0
  3  4  1  0
  4  5  1  0
  5  6  1  0
  6  7  1  0
  7  8  1  0
  7  9  1  0
  8  2  1  0
  9  2  1  0
  1 10  1  0
  3 11  1  0
  3 12  1  0
  4 13  1  0
  4 14  1  0
  5 15  1  0
  5 16  1  0
  7 17  1  0
  8 18  1  0
  8 19  1  0
  9 20  1  0
  9 21  1  0
M  END
