
     RDKit          3D

 17 19  0  0  0  0  0  0  0  0999 V2000
    0.3281    1.5757   -0.3981 O   0  0  0  0  0  0  0  0  0  0  0  0
    0.9396    0.3549   -0.3925 C   0  0  0  0  0  0  0  0  0  0  0  0
    2.2281    0.2716    0.3245 C   0  0  0  0  0  0  0  0  0  0  0  0
    1.0738   -0.4602    0.8876 C   0  0  0  0  0  0  0  0  0  0  0  0
    0.7720   -1.6476    0.1963 O   0  0  0  0  0  0  0  0  0  0  0  0
    0.1123   -0.8244   -0.7426 C   0  0  0  0  0  0  0  0  0  0  0  0
   -1.3425   -0.8211   -0.4281 C   0  0  0  0  0  0  0  0  0  0  0  0
   -2.1357    0.2350    0.0941 C   0  0  0  0  0  0  0  0  0  0  0  0
   -2.1737    0.0063   -1.3326 O   0  0  0  0  0  0  0  0  0  0  0  0
    0.4099    2.0056    0.4973 H   0  0  0  0  0  0  0  0  0  0  0  0
    3.0602   -0.3861   -0.0464 H   0  0  0  0  0  0  0  0  0  0  0  0
    2.5992    1.1634    0.8482 H   0  0  0  0  0  0  0  0  0  0  0  0
    0.5341   -0.1809    1.7810 H   0  0  0  0  0  0  0  0  0  0  0  0
    0.3685   -1.2287   -1.7595 H   0  0  0  0  0  0  0  0  0  0  0  0
   -1.8148   -1.8489   -0.4564 H   0  0  0  0  0  0  0  0  0  0  0  0
   -1.8671    1.2691    0.2939 H   0  0  0  0  0  0  0  0  0  0  0  0
   -3.0921   -0.0384    0.6333 H   0  0  0  0  0  0  0  0  0  0  0  0
  1  2  1  0
  2  3  1  0
  3  4  1  0
  4  5  1  0
  5  6  1  0
  6  7  1  0
  7  8  1  0
  8  9  1  0
  4  2  1  0
  9  7  1  0
  6  2  1  0
  1 10  1  0
  3 11  1  0
  3 12  1  0
  4 13  1  0
  6 14  1  0
  7 15  1  0
  8 16  1  0
  8 17  1  0
M  END
