
     RDKit          3D

 16 17  0  0  0  0  0  0  0  0999 V2000
    1.3950    1.2243    0.8546 O   0  0  0  0  0  0  0  0  0  0  0  0
    0.6006    0.3634    0.1192 C   0  0  0  0  0  0  0  0  0  0  0  0
   -0.3744    0.9782   -0.8227 C   0  0  0  0  0  0  0  0  0  0  0  0
   -1.6350    0.5279   -0.5220 O   0  0  0  0  0  0  0  0  0  0  0  0
   -1.5413   -0.5826    0.2742 C   0  0  0  0  0  0  0  0  0  0  0  0
   -0.2150   -0.5653    0.9680 C   0  0  0  0  0  0  0  0  0  0  0  0
    0.6290   -1.5962    0.6096 O   0  0  0  0  0  0  0  0  0  0  0  0
    1.2741   -0.8862   -0.3852 C   0  0  0  0  0  0  0  0  0  0  0  0
    1.4131    2.1446    0.5236 H   0  0  0  0  0  0  0  0  0  0  0  0
   -0.3814    2.0848   -0.8201 H   0  0  0  0  0  0  0  0  0  0  0  0
   -0.1611    0.6809   -1.8840 H   0  0  0  0  0  0  0  0  0  0  0  0
   -2.3641   -0.5375    1.0409 H   0  0  0  0  0  0  0  0  0  0  0  0
   -1.7134   -1.5442   -0.2663 H   0  0  0  0  0  0  0  0  0  0  0  0
   -0.2542   -0.2891    2.0278 H   0  0  0  0  0  0  0  0  0  0  0  0
    0.9632   -1.1983   -1.3997 H   0  0  0  0  0  0  0  0  0  0  0  0
    2.3649   -0.8048   -0.3180 H   0  0  0  0  0  0  0  0  0  0  0  0
  1  2  1  0
  2  3  1  0
  3  4  1  0
  4  5  1  0
  5  6  1  0
  6  7  1  0
  7  8  1  0
  6  2  1  0
  8  2  1  0
  1  9  1  0
  3 10  1  0
  3 11  1  0
  5 12  1  0
  5 13  1  0
  6 14  1  0
  8 15  1  0
  8 16  1  0
M  END
