
     RDKit          3D

 19 22  0  0  0  0  0  0  0  0999 V2000
    1.5919   -0.2057   -1.7483 O   0  0  0  0  0  0  0  0  0  0  0  0
    0.7043   -0.0815   -0.7733 C   0  0  0  0  0  0  0  0  0  0  0  0
    1.2431    0.5004    0.5434 C   0  0  0  0  0  0  0  0  0  0  0  0
   -0.0992    0.4587    1.2970 C   0  0  0  0  0  0  0  0  0  0  0  0
   -0.8173   -0.7494    0.7945 C   0  0  0  0  0  0  0  0  0  0  0  0
    0.1554   -1.3987   -0.2038 C   0  0  0  0  0  0  0  0  0  0  0  0
   -1.5772    0.1383   -0.1471 C   0  0  0  0  0  0  0  0  0  0  0  0
   -0.9050    1.2911    0.3625 C   0  0  0  0  0  0  0  0  0  0  0  0
   -0.5161    0.7217   -0.9894 C   0  0  0  0  0  0  0  0  0  0  0  0
    2.0406   -1.0614   -1.8919 H   0  0  0  0  0  0  0  0  0  0  0  0
    1.5569    1.5185    0.3212 H   0  0  0  0  0  0  0  0  0  0  0  0
    1.9806   -0.1416    1.0113 H   0  0  0  0  0  0  0  0  0  0  0  0
   -0.0706    0.6783    2.3394 H   0  0  0  0  0  0  0  0  0  0  0  0
   -1.3374   -1.3947    1.4599 H   0  0  0  0  0  0  0  0  0  0  0  0
   -0.3962   -1.9660   -0.9579 H   0  0  0  0  0  0  0  0  0  0  0  0
    0.9380   -1.9691    0.3221 H   0  0  0  0  0  0  0  0  0  0  0  0
   -2.5983   -0.0140   -0.4250 H   0  0  0  0  0  0  0  0  0  0  0  0
   -1.2134    2.2917    0.5115 H   0  0  0  0  0  0  0  0  0  0  0  0
   -0.6802    1.3833   -1.8260 H   0  0  0  0  0  0  0  0  0  0  0  0
  1  2  1  0
  2  3  1  0
  3  4  1  0
  4  5  1  0
  5  6  1  0
  5  7  1  0
  7  8  1  0
  8  9  1  0
  6  2  1  0
  9  7  1  0
  9  2  1  0
  8  4  1  0
  1 10  1  0
  3 11  1  0
  3 12  1  0
  4 13  1  0
  5 14  1  0
  6 15  1  0
  6 16  1  0
  7 17  1  0
  8 18  1  0
  9 19  1  0
M  END
