
     RDKit          3D

 19 22  0  0  0  0  0  0  0  0999 V2000
    2.6865   -0.0108    0.5712 O   0  0  0  0  0  0  0  0  0  0  0  0
    1.3555    0.0840    0.3285 C   0  0  0  0  0  0  0  0  0  0  0  0
    0.7666    1.3081   -0.3415 C   0  0  0  0  0  0  0  0  0  0  0  0
   -0.6384    0.8923   -0.5155 C   0  0  0  0  0  0  0  0  0  0  0  0
   -0.6083   -0.5728   -0.9430 C   0  0  0  0  0  0  0  0  0  0  0  0
   -1.8252   -0.6987   -0.0098 C   0  0  0  0  0  0  0  0  0  0  0  0
   -0.9895    0.2717    0.8417 C   0  0  0  0  0  0  0  0  0  0  0  0
    0.2969   -0.4054    1.1912 C   0  0  0  0  0  0  0  0  0  0  0  0
    0.6106   -1.0426   -0.2113 C   0  0  0  0  0  0  0  0  0  0  0  0
    3.1595   -0.0332   -0.3215 H   0  0  0  0  0  0  0  0  0  0  0  0
    1.2256    1.5116   -1.3182 H   0  0  0  0  0  0  0  0  0  0  0  0
    0.8869    2.1558    0.3538 H   0  0  0  0  0  0  0  0  0  0  0  0
   -1.3661    1.5250   -0.9644 H   0  0  0  0  0  0  0  0  0  0  0  0
   -0.7532   -0.8003   -1.9684 H   0  0  0  0  0  0  0  0  0  0  0  0
   -1.9506   -1.6900    0.4265 H   0  0  0  0  0  0  0  0  0  0  0  0
   -2.6840   -0.2384   -0.5097 H   0  0  0  0  0  0  0  0  0  0  0  0
   -1.5034    0.8755    1.5438 H   0  0  0  0  0  0  0  0  0  0  0  0
    0.4025   -1.0519    2.0521 H   0  0  0  0  0  0  0  0  0  0  0  0
    0.9280   -2.0799   -0.2053 H   0  0  0  0  0  0  0  0  0  0  0  0
  1  2  1  0
  2  3  1  0
  3  4  1  0
  4  5  1  0
  5  6  1  0
  6  7  1  0
  7  8  1  0
  8  9  1  0
  8  2  1  0
  9  2  1  0
  7  4  1  0
  9  5  1  0
  1 10  1  0
  3 11  1  0
  3 12  1  0
  4 13  1  0
  5 14  1  0
  6 15  1  0
  6 16  1  0
  7 17  1  0
  8 18  1  0
  9 19  1  0
M  END
