
     RDKit          3D

 14 16  0  0  0  0  0  0  0  0999 V2000
   -1.6460   -1.1725    0.0586 O   0  0  0  0  0  0  0  0  0  0  0  0
   -0.6588   -0.3181    0.4353 C   0  0  0  0  0  0  0  0  0  0  0  0
    0.5720   -0.8065    1.0610 C   0  0  0  0  0  0  0  0  0  0  0  0
    0.6518   -0.2369   -0.2972 C   0  0  0  0  0  0  0  0  0  0  0  0
    0.9115   -1.0328   -1.3829 O   0  0  0  0  0  0  0  0  0  0  0  0
    0.3578    1.2449   -0.4940 C   0  0  0  0  0  0  0  0  0  0  0  0
    0.2632    1.9440    0.6926 O   0  0  0  0  0  0  0  0  0  0  0  0
   -0.7881    1.1734    0.2507 C   0  0  0  0  0  0  0  0  0  0  0  0
   -2.1308   -0.9493   -0.7586 H   0  0  0  0  0  0  0  0  0  0  0  0
    0.7392   -1.8917    1.1417 H   0  0  0  0  0  0  0  0  0  0  0  0
    0.9291   -0.2518    1.9578 H   0  0  0  0  0  0  0  0  0  0  0  0
    1.9143   -1.0942   -1.4644 H   0  0  0  0  0  0  0  0  0  0  0  0
    0.6400    1.7287   -1.4290 H   0  0  0  0  0  0  0  0  0  0  0  0
   -1.7552    1.6628    0.2284 H   0  0  0  0  0  0  0  0  0  0  0  0
  1  2  1  0
  2  3  1  0
  3  4  1  0
  4  5  1  0
  4  6  1  0
  6  7  1  0
  7  8  1  0
  4  2  1  0
  8  6  1  0
  8  2  1  0
  1  9  1  0
  3 10  1  0
  3 11  1  0
  5 12  1  0
  6 13  1  0
  8 14  1  0
M  END
