
     RDKit          3D

 15 17  0  0  0  0  0  0  0  0999 V2000
   -0.7412    1.9028   -0.6964 O   0  0  0  0  0  0  0  0  0  0  0  0
   -0.5775    0.5604   -0.4036 C   0  0  0  0  0  0  0  0  0  0  0  0
   -1.7633   -0.2681    0.0195 C   0  0  0  0  0  0  0  0  0  0  0  0
   -0.6230    0.0245    0.9575 C   0  0  0  0  0  0  0  0  0  0  0  0
    0.6132   -0.7639    0.7233 C   0  0  0  0  0  0  0  0  0  0  0  0
    1.8557   -0.1629    0.1869 C   0  0  0  0  0  0  0  0  0  0  0  0
    0.6834   -0.1569   -0.7140 C   0  0  0  0  0  0  0  0  0  0  0  0
   -0.1920    2.2210   -1.4509 H   0  0  0  0  0  0  0  0  0  0  0  0
   -2.7386    0.2096    0.1872 H   0  0  0  0  0  0  0  0  0  0  0  0
   -1.7580   -1.2954   -0.4333 H   0  0  0  0  0  0  0  0  0  0  0  0
   -0.7676    0.6547    1.8440 H   0  0  0  0  0  0  0  0  0  0  0  0
    0.4641   -1.8722    0.7504 H   0  0  0  0  0  0  0  0  0  0  0  0
    2.2702    0.7442    0.6443 H   0  0  0  0  0  0  0  0  0  0  0  0
    2.6491   -0.9039   -0.0850 H   0  0  0  0  0  0  0  0  0  0  0  0
    0.6255   -0.8939   -1.5301 H   0  0  0  0  0  0  0  0  0  0  0  0
  1  2  1  0
  2  3  1  0
  3  4  1  0
  4  5  1  0
  5  6  1  0
  6  7  1  0
  4  2  1  0
  7  5  1  0
  7  2  1  0
  1  8  1  0
  3  9  1  0
  3 10  1  0
  4 11  1  0
  5 12  1  0
  6 13  1  0
  6 14  1  0
  7 15  1  0
M  END
