
     RDKit          3D

 21 22  0  0  0  0  0  0  0  0999 V2000
   -1.0089    2.1649    0.2599 O   0  0  0  0  0  0  0  0  0  0  0  0
   -0.3337    0.9792    0.1485 C   0  0  0  0  0  0  0  0  0  0  0  0
    1.1598    1.1596   -0.0034 C   0  0  0  0  0  0  0  0  0  0  0  0
    1.8343   -0.1379   -0.1159 C   0  0  0  0  0  0  0  0  0  0  0  0
    1.2030   -1.1931   -0.5896 C   0  0  0  0  0  0  0  0  0  0  0  0
   -0.2622   -1.2133   -0.6664 C   0  0  0  0  0  0  0  0  0  0  0  0
   -0.7803   -1.3250    0.7736 C   0  0  0  0  0  0  0  0  0  0  0  0
   -0.7176    0.0800    1.2711 C   0  0  0  0  0  0  0  0  0  0  0  0
   -0.7664    0.1762   -1.0748 C   0  0  0  0  0  0  0  0  0  0  0  0
   -1.3897    2.5137   -0.5638 H   0  0  0  0  0  0  0  0  0  0  0  0
    1.3189    1.7069   -0.9722 H   0  0  0  0  0  0  0  0  0  0  0  0
    1.5871    1.7927    0.7921 H   0  0  0  0  0  0  0  0  0  0  0  0
    2.8812   -0.2254    0.2009 H   0  0  0  0  0  0  0  0  0  0  0  0
    1.7728   -2.0394   -0.9195 H   0  0  0  0  0  0  0  0  0  0  0  0
   -0.6865   -1.9954   -1.2884 H   0  0  0  0  0  0  0  0  0  0  0  0
   -1.7730   -1.7748    0.7633 H   0  0  0  0  0  0  0  0  0  0  0  0
   -0.0820   -1.9504    1.3655 H   0  0  0  0  0  0  0  0  0  0  0  0
   -1.7639    0.3594    1.5907 H   0  0  0  0  0  0  0  0  0  0  0  0
   -0.0491    0.2129    2.1508 H   0  0  0  0  0  0  0  0  0  0  0  0
   -0.2870    0.5220   -1.9943 H   0  0  0  0  0  0  0  0  0  0  0  0
   -1.8567    0.1872   -1.1282 H   0  0  0  0  0  0  0  0  0  0  0  0
  1  2  1  0
  2  3  1  0
  3  4  1  0
  4  5  2  0
  5  6  1  0
  6  7  1  0
  7  8  1  0
  6  9  1  0
  8  2  1  0
  9  2  1  0
  1 10  1  0
  3 11  1  0
  3 12  1  0
  4 13  1  0
  5 14  1  0
  6 15  1  0
  7 16  1  0
  7 17  1  0
  8 18  1  0
  8 19  1  0
  9 20  1  0
  9 21  1  0
M  END
