
     RDKit          3D

 19 20  0  0  0  0  0  0  0  0999 V2000
   -0.9930   -1.2542    1.3906 O   0  0  0  0  0  0  0  0  0  0  0  0
   -0.6156   -0.5504    0.2780 C   0  0  0  0  0  0  0  0  0  0  0  0
   -1.5974    0.4660   -0.1603 C   0  0  0  0  0  0  0  0  0  0  0  0
   -0.9907    1.5785   -0.5464 C   0  0  0  0  0  0  0  0  0  0  0  0
    0.4741    1.3994   -0.3979 C   0  0  0  0  0  0  0  0  0  0  0  0
    0.5729    0.3391    0.6402 C   0  0  0  0  0  0  0  0  0  0  0  0
    1.7036   -0.6275    0.4171 C   0  0  0  0  0  0  0  0  0  0  0  0
    1.2369   -1.6739   -0.3362 O   0  0  0  0  0  0  0  0  0  0  0  0
   -0.0273   -1.3714   -0.8174 C   0  0  0  0  0  0  0  0  0  0  0  0
   -1.8757   -0.9881    1.7401 H   0  0  0  0  0  0  0  0  0  0  0  0
   -2.6822    0.3365   -0.1719 H   0  0  0  0  0  0  0  0  0  0  0  0
   -1.5250    2.4707   -0.9123 H   0  0  0  0  0  0  0  0  0  0  0  0
    0.9224    2.3621   -0.0509 H   0  0  0  0  0  0  0  0  0  0  0  0
    0.9399    1.0956   -1.3676 H   0  0  0  0  0  0  0  0  0  0  0  0
    0.4973    0.7304    1.6518 H   0  0  0  0  0  0  0  0  0  0  0  0
    2.0305   -1.0130    1.4055 H   0  0  0  0  0  0  0  0  0  0  0  0
    2.5745   -0.1652   -0.0837 H   0  0  0  0  0  0  0  0  0  0  0  0
   -0.6276   -2.3043   -0.9136 H   0  0  0  0  0  0  0  0  0  0  0  0
   -0.0175   -0.8303   -1.7652 H   0  0  0  0  0  0  0  0  0  0  0  0
  1  2  1  0
  2  3  1  0
  3  4  2  0
  4  5  1  0
  5  6  1  0
  6  7  1  0
  7  8  1  0
  8  9  1  0
  6  2  1  0
  9  2  1  0
  1 10  1  0
  3 11  1  0
  4 12  1  0
  5 13  1  0
  5 14  1  0
  6 15  1  0
  7 16  1  0
  7 17  1  0
  9 18  1  0
  9 19  1  0
M  END
