
     RDKit          3D

 17 20  0  0  0  0  0  0  0  0999 V2000
   -0.6998    1.8987    0.9213 O   0  0  0  0  0  0  0  0  0  0  0  0
   -0.4216    0.7347    0.3901 C   0  0  0  0  0  0  0  0  0  0  0  0
    0.6521   -0.1682    0.9391 C   0  0  0  0  0  0  0  0  0  0  0  0
    1.7303    0.0327   -0.0958 C   0  0  0  0  0  0  0  0  0  0  0  0
    1.1627    0.6091   -1.2023 O   0  0  0  0  0  0  0  0  0  0  0  0
   -0.2097    0.5593   -1.0949 C   0  0  0  0  0  0  0  0  0  0  0  0
   -0.7619   -0.8600   -0.8803 C   0  0  0  0  0  0  0  0  0  0  0  0
   -0.2485   -1.3176    0.4543 C   0  0  0  0  0  0  0  0  0  0  0  0
   -1.3456   -0.4161    0.3640 C   0  0  0  0  0  0  0  0  0  0  0  0
   -1.0406    2.5495    0.2612 H   0  0  0  0  0  0  0  0  0  0  0  0
    0.8930   -0.1385    1.9733 H   0  0  0  0  0  0  0  0  0  0  0  0
    2.0659   -1.0021   -0.3986 H   0  0  0  0  0  0  0  0  0  0  0  0
    2.6003    0.5561    0.3149 H   0  0  0  0  0  0  0  0  0  0  0  0
   -0.7616    1.1883   -1.7653 H   0  0  0  0  0  0  0  0  0  0  0  0
   -1.1321   -1.4633   -1.6535 H   0  0  0  0  0  0  0  0  0  0  0  0
   -0.1373   -2.3110    0.7737 H   0  0  0  0  0  0  0  0  0  0  0  0
   -2.3456   -0.4516    0.6990 H   0  0  0  0  0  0  0  0  0  0  0  0
  1  2  1  0
  2  3  1  0
  3  4  1  0
  4  5  1  0
  5  6  1  0
  6  7  1  0
  7  8  1  0
  8  9  1  0
  6  2  1  0
  9  7  1  0
  9  2  1  0
  8  3  1  0
  1 10  1  0
  3 11  1  0
  4 12  1  0
  4 13  1  0
  6 14  1  0
  7 15  1  0
  8 16  1  0
  9 17  1  0
M  END
