
     RDKit          3D

 19 21  0  0  0  0  0  0  0  0999 V2000
    2.0639    0.4997    0.7102 O   0  0  0  0  0  0  0  0  0  0  0  0
    0.8823   -0.0587    0.3629 C   0  0  0  0  0  0  0  0  0  0  0  0
   -0.1764   -0.1919    1.4402 C   0  0  0  0  0  0  0  0  0  0  0  0
   -1.4460    0.0263    0.6062 C   0  0  0  0  0  0  0  0  0  0  0  0
   -0.9892    1.2557   -0.1965 C   0  0  0  0  0  0  0  0  0  0  0  0
    0.2134    0.5942   -0.8197 C   0  0  0  0  0  0  0  0  0  0  0  0
   -0.3359   -0.7762   -1.1409 C   0  0  0  0  0  0  0  0  0  0  0  0
    0.9348   -1.3299   -0.4746 C   0  0  0  0  0  0  0  0  0  0  0  0
   -1.4713   -0.9384   -0.3603 O   0  0  0  0  0  0  0  0  0  0  0  0
    2.3532    1.1310   -0.0223 H   0  0  0  0  0  0  0  0  0  0  0  0
   -0.2194   -1.2207    1.7981 H   0  0  0  0  0  0  0  0  0  0  0  0
   -0.0613    0.5711    2.2199 H   0  0  0  0  0  0  0  0  0  0  0  0
   -2.3307    0.1793    1.1743 H   0  0  0  0  0  0  0  0  0  0  0  0
   -0.6136    2.0533    0.4781 H   0  0  0  0  0  0  0  0  0  0  0  0
   -1.7414    1.5840   -0.9108 H   0  0  0  0  0  0  0  0  0  0  0  0
    0.7926    1.1101   -1.5390 H   0  0  0  0  0  0  0  0  0  0  0  0
   -0.4224   -0.9748   -2.2034 H   0  0  0  0  0  0  0  0  0  0  0  0
    0.8008   -2.2609    0.0663 H   0  0  0  0  0  0  0  0  0  0  0  0
    1.7664   -1.2532   -1.1888 H   0  0  0  0  0  0  0  0  0  0  0  0
  1  2  1  0
  2  3  1  0
  3  4  1  0
  4  5  1  0
  5  6  1  0
  6  7  1  0
  7  8  1  0
  7  9  1  0
  6  2  1  0
  8  2  1  0
  9  4  1  0
  1 10  1  0
  3 11  1  0
  3 12  1  0
  4 13  1  0
  5 14  1  0
  5 15  1  0
  6 16  1  0
  7 17  1  0
  8 18  1  0
  8 19  1  0
M  END
