
     RDKit          3D

 18 19  0  0  0  0  0  0  0  0999 V2000
    1.9960    0.1007   -0.5252 O   0  0  0  0  0  0  0  0  0  0  0  0
    0.7581   -0.0428    0.0747 C   0  0  0  0  0  0  0  0  0  0  0  0
    0.2430    1.1690    0.8142 C   0  0  0  0  0  0  0  0  0  0  0  0
   -0.7119    1.4038   -0.3267 C   0  0  0  0  0  0  0  0  0  0  0  0
   -0.3409    0.0690   -0.9288 C   0  0  0  0  0  0  0  0  0  0  0  0
   -1.2332   -1.0742   -0.6264 C   0  0  0  0  0  0  0  0  0  0  0  0
   -0.6698   -1.8676    0.3247 O   0  0  0  0  0  0  0  0  0  0  0  0
    0.4884   -1.3239    0.7808 C   0  0  0  0  0  0  0  0  0  0  0  0
    2.6339    0.3594    0.1822 H   0  0  0  0  0  0  0  0  0  0  0  0
    1.0646    1.9122    0.9157 H   0  0  0  0  0  0  0  0  0  0  0  0
   -0.2167    0.9210    1.7890 H   0  0  0  0  0  0  0  0  0  0  0  0
   -0.4361    2.2871   -0.9533 H   0  0  0  0  0  0  0  0  0  0  0  0
   -1.7714    1.4347   -0.0569 H   0  0  0  0  0  0  0  0  0  0  0  0
   -0.0370    0.2195   -1.9861 H   0  0  0  0  0  0  0  0  0  0  0  0
   -2.2592   -0.7493   -0.3708 H   0  0  0  0  0  0  0  0  0  0  0  0
   -1.3349   -1.6872   -1.5650 H   0  0  0  0  0  0  0  0  0  0  0  0
    1.3526   -2.0096    0.5848 H   0  0  0  0  0  0  0  0  0  0  0  0
    0.4745   -1.1220    1.8733 H   0  0  0  0  0  0  0  0  0  0  0  0
  1  2  1  0
  2  3  1  0
  3  4  1  0
  4  5  1  0
  5  6  1  0
  6  7  1  0
  7  8  1  0
  5  2  1  0
  8  2  1  0
  1  9  1  0
  3 10  1  0
  3 11  1  0
  4 12  1  0
  4 13  1  0
  5 14  1  0
  6 15  1  0
  6 16  1  0
  8 17  1  0
  8 18  1  0
M  END
