
     RDKit          3D

 17 19  0  0  0  0  0  0  0  0999 V2000
   -1.8642   -0.7608    1.0261 O   0  0  0  0  0  0  0  0  0  0  0  0
   -0.8403   -0.1311    0.3732 C   0  0  0  0  0  0  0  0  0  0  0  0
    0.5847   -0.2642    0.8203 C   0  0  0  0  0  0  0  0  0  0  0  0
    1.0439    1.0887    0.4757 C   0  0  0  0  0  0  0  0  0  0  0  0
    0.2184    1.7224   -0.3250 C   0  0  0  0  0  0  0  0  0  0  0  0
   -0.9212    0.8017   -0.6027 C   0  0  0  0  0  0  0  0  0  0  0  0
   -0.6971   -0.5589   -1.1024 C   0  0  0  0  0  0  0  0  0  0  0  0
   -0.2622   -1.7779   -0.5959 O   0  0  0  0  0  0  0  0  0  0  0  0
    1.0186   -1.3795   -0.0911 C   0  0  0  0  0  0  0  0  0  0  0  0
   -2.6137   -0.1813    1.2978 H   0  0  0  0  0  0  0  0  0  0  0  0
    0.6866   -0.5135    1.8903 H   0  0  0  0  0  0  0  0  0  0  0  0
    1.9919    1.5016    0.8669 H   0  0  0  0  0  0  0  0  0  0  0  0
    0.3307    2.7007   -0.7068 H   0  0  0  0  0  0  0  0  0  0  0  0
   -1.8557    1.2955   -0.9814 H   0  0  0  0  0  0  0  0  0  0  0  0
    0.1203   -0.3659   -1.8162 H   0  0  0  0  0  0  0  0  0  0  0  0
    1.5131   -2.2128    0.4194 H   0  0  0  0  0  0  0  0  0  0  0  0
    1.5462   -0.9646   -0.9483 H   0  0  0  0  0  0  0  0  0  0  0  0
  1  2  1  0
  2  3  1  0
  3  4  1  0
  4  5  2  0
  5  6  1  0
  6  7  1  0
  7  8  1  0
  8  9  1  0
  6  2  1  0
  7  2  1  0
  9  3  1  0
  1 10  1  0
  3 11  1  0
  4 12  1  0
  5 13  1  0
  6 14  1  0
  7 15  1  0
  9 16  1  0
  9 17  1  0
M  END
