
     RDKit          3D

 17 19  0  0  0  0  0  0  0  0999 V2000
   -2.1396    0.7810   -0.4134 O   0  0  0  0  0  0  0  0  0  0  0  0
   -1.0411    0.0874    0.1520 C   0  0  0  0  0  0  0  0  0  0  0  0
   -1.3183   -1.2712    0.6203 C   0  0  0  0  0  0  0  0  0  0  0  0
   -0.4703   -0.9836   -0.6393 C   0  0  0  0  0  0  0  0  0  0  0  0
    0.8276   -1.3019   -0.5095 O   0  0  0  0  0  0  0  0  0  0  0  0
    1.7379   -0.3137   -0.3607 C   0  0  0  0  0  0  0  0  0  0  0  0
    1.2767    0.9252    0.3178 C   0  0  0  0  0  0  0  0  0  0  0  0
    0.5043    1.8590   -0.3957 O   0  0  0  0  0  0  0  0  0  0  0  0
   -0.0239    0.9938    0.7233 C   0  0  0  0  0  0  0  0  0  0  0  0
   -1.7213    1.4861   -0.9692 H   0  0  0  0  0  0  0  0  0  0  0  0
   -0.8160   -1.7258    1.4875 H   0  0  0  0  0  0  0  0  0  0  0  0
   -2.3098   -1.7014    0.4129 H   0  0  0  0  0  0  0  0  0  0  0  0
   -0.9517   -1.2255   -1.6146 H   0  0  0  0  0  0  0  0  0  0  0  0
    2.1532   -0.0521   -1.3747 H   0  0  0  0  0  0  0  0  0  0  0  0
    2.6158   -0.7330    0.1932 H   0  0  0  0  0  0  0  0  0  0  0  0
    2.0909    1.4633    0.8899 H   0  0  0  0  0  0  0  0  0  0  0  0
   -0.4145    1.7125    1.4803 H   0  0  0  0  0  0  0  0  0  0  0  0
  1  2  1  0
  2  3  1  0
  3  4  1  0
  4  5  1  0
  5  6  1  0
  6  7  1  0
  7  8  1  0
  8  9  1  0
  4  2  1  0
  9  7  1  0
  9  2  1  0
  1 10  1  0
  3 11  1  0
  3 12  1  0
  4 13  1  0
  6 14  1  0
  6 15  1  0
  7 16  1  0
  9 17  1  0
M  END
