
     RDKit          3D

 19 20  0  0  0  0  0  0  0  0999 V2000
   -0.8570    1.8467   -0.9849 O   0  0  0  0  0  0  0  0  0  0  0  0
   -0.4227    0.8646   -0.0972 C   0  0  0  0  0  0  0  0  0  0  0  0
   -1.4958    0.3708    0.7775 C   0  0  0  0  0  0  0  0  0  0  0  0
   -1.5633   -0.9533    0.7902 C   0  0  0  0  0  0  0  0  0  0  0  0
   -0.5069   -1.5292   -0.1058 C   0  0  0  0  0  0  0  0  0  0  0  0
    0.1265   -0.3523   -0.8046 C   0  0  0  0  0  0  0  0  0  0  0  0
    1.6072   -0.3894   -0.5344 C   0  0  0  0  0  0  0  0  0  0  0  0
    1.8404    0.7244    0.4007 C   0  0  0  0  0  0  0  0  0  0  0  0
    0.7410    1.4131    0.6449 C   0  0  0  0  0  0  0  0  0  0  0  0
   -1.8144    1.7118   -1.2023 H   0  0  0  0  0  0  0  0  0  0  0  0
   -2.1700    0.9897    1.3576 H   0  0  0  0  0  0  0  0  0  0  0  0
   -2.2446   -1.5984    1.3346 H   0  0  0  0  0  0  0  0  0  0  0  0
    0.2310   -2.0880    0.5256 H   0  0  0  0  0  0  0  0  0  0  0  0
   -0.9303   -2.2703   -0.8046 H   0  0  0  0  0  0  0  0  0  0  0  0
   -0.1048   -0.3402   -1.8950 H   0  0  0  0  0  0  0  0  0  0  0  0
    1.9204   -1.3606   -0.0599 H   0  0  0  0  0  0  0  0  0  0  0  0
    2.1882   -0.2841   -1.4900 H   0  0  0  0  0  0  0  0  0  0  0  0
    2.7930    0.9769    0.8542 H   0  0  0  0  0  0  0  0  0  0  0  0
    0.6621    2.2678    1.2932 H   0  0  0  0  0  0  0  0  0  0  0  0
  1  2  1  0
  2  3  1  0
  3  4  2  0
  4  5  1  0
  5  6  1  0
  6  7  1  0
  7  8  1  0
  8  9  2  0
  6  2  1  0
  9  2  1  0
  1 10  1  0
  3 11  1  0
  4 12  1  0
  5 13  1  0
  5 14  1  0
  6 15  1  0
  7 16  1  0
  7 17  1  0
  8 18  1  0
  9 19  1  0
M  END
