
     RDKit          3D

 17 20  0  0  0  0  0  0  0  0999 V2000
    2.5519    0.6501   -0.2106 O   0  0  0  0  0  0  0  0  0  0  0  0
    1.2657    0.4155   -0.0323 C   0  0  0  0  0  0  0  0  0  0  0  0
    0.4002   -0.5594   -0.6946 C   0  0  0  0  0  0  0  0  0  0  0  0
   -0.0821   -1.0170    0.6697 C   0  0  0  0  0  0  0  0  0  0  0  0
   -1.5521   -0.9119    0.4780 C   0  0  0  0  0  0  0  0  0  0  0  0
   -1.8305   -0.0233   -0.4683 C   0  0  0  0  0  0  0  0  0  0  0  0
   -0.5702    0.5525   -1.0026 C   0  0  0  0  0  0  0  0  0  0  0  0
    0.1480    1.3226    0.1042 C   0  0  0  0  0  0  0  0  0  0  0  0
    0.4850    0.3134    1.1719 C   0  0  0  0  0  0  0  0  0  0  0  0
    3.0600   -0.1873   -0.3549 H   0  0  0  0  0  0  0  0  0  0  0  0
    0.6969   -1.2497   -1.4194 H   0  0  0  0  0  0  0  0  0  0  0  0
    0.3274   -1.9132    1.0791 H   0  0  0  0  0  0  0  0  0  0  0  0
   -2.2873   -1.4770    1.0292 H   0  0  0  0  0  0  0  0  0  0  0  0
   -2.8461    0.2168   -0.7756 H   0  0  0  0  0  0  0  0  0  0  0  0
   -0.5711    0.9827   -1.9798 H   0  0  0  0  0  0  0  0  0  0  0  0
    0.1048    2.3628    0.2276 H   0  0  0  0  0  0  0  0  0  0  0  0
    0.6994    0.5226    2.1785 H   0  0  0  0  0  0  0  0  0  0  0  0
  1  2  1  0
  2  3  1  0
  3  4  1  0
  4  5  1  0
  5  6  2  0
  6  7  1  0
  7  8  1  0
  8  9  1  0
  8  2  1  0
  9  2  1  0
  7  3  1  0
  9  4  1  0
  1 10  1  0
  3 11  1  0
  4 12  1  0
  5 13  1  0
  6 14  1  0
  7 15  1  0
  8 16  1  0
  9 17  1  0
M  END
