
     RDKit          3D

 19 21  0  0  0  0  0  0  0  0999 V2000
   -0.4264    2.2315   -0.2031 O   0  0  0  0  0  0  0  0  0  0  0  0
   -0.3812    0.9139   -0.0655 C   0  0  0  0  0  0  0  0  0  0  0  0
   -1.5310    0.0462   -0.4832 C   0  0  0  0  0  0  0  0  0  0  0  0
   -0.4562   -1.0389   -0.5599 C   0  0  0  0  0  0  0  0  0  0  0  0
   -0.0883   -1.1738    0.8837 C   0  0  0  0  0  0  0  0  0  0  0  0
    0.2033    0.3043    1.1992 C   0  0  0  0  0  0  0  0  0  0  0  0
    1.5535    0.4925    0.9892 O   0  0  0  0  0  0  0  0  0  0  0  0
    1.7601    0.0230   -0.3241 C   0  0  0  0  0  0  0  0  0  0  0  0
    0.4505    0.0957   -1.0380 C   0  0  0  0  0  0  0  0  0  0  0  0
   -1.0092    2.6302    0.4772 H   0  0  0  0  0  0  0  0  0  0  0  0
   -1.8853    0.3095   -1.4742 H   0  0  0  0  0  0  0  0  0  0  0  0
   -2.2584   -0.2230    0.2808 H   0  0  0  0  0  0  0  0  0  0  0  0
   -0.6102   -1.8694   -1.1822 H   0  0  0  0  0  0  0  0  0  0  0  0
   -0.9815   -1.4730    1.4985 H   0  0  0  0  0  0  0  0  0  0  0  0
    0.7870   -1.8079    1.0781 H   0  0  0  0  0  0  0  0  0  0  0  0
   -0.2092    0.6510    2.1158 H   0  0  0  0  0  0  0  0  0  0  0  0
    2.0915   -1.0398   -0.2890 H   0  0  0  0  0  0  0  0  0  0  0  0
    2.5793    0.5756   -0.8289 H   0  0  0  0  0  0  0  0  0  0  0  0
    0.4116    0.3524   -2.0745 H   0  0  0  0  0  0  0  0  0  0  0  0
  1  2  1  0
  2  3  1  0
  3  4  1  0
  4  5  1  0
  5  6  1  0
  6  7  1  0
  7  8  1  0
  8  9  1  0
  6  2  1  0
  9  2  1  0
  9  4  1  0
  1 10  1  0
  3 11  1  0
  3 12  1  0
  4 13  1  0
  5 14  1  0
  5 15  1  0
  6 16  1  0
  8 17  1  0
  8 18  1  0
  9 19  1  0
M  END
