
     RDKit          3D

 21 22  0  0  0  0  0  0  0  0999 V2000
    1.8704   -1.4438    1.1015 O   0  0  0  0  0  0  0  0  0  0  0  0
    1.1566   -0.6271    0.1919 C   0  0  0  0  0  0  0  0  0  0  0  0
    0.2313   -1.3775   -0.6813 C   0  0  0  0  0  0  0  0  0  0  0  0
   -0.7130   -0.6468   -1.3439 O   0  0  0  0  0  0  0  0  0  0  0  0
   -1.8278   -0.5278   -0.4844 C   0  0  0  0  0  0  0  0  0  0  0  0
   -1.6819    0.7719    0.2671 C   0  0  0  0  0  0  0  0  0  0  0  0
   -0.3434    1.3914    0.0283 C   0  0  0  0  0  0  0  0  0  0  0  0
    0.7997    0.6925    0.6326 C   0  0  0  0  0  0  0  0  0  0  0  0
    1.9938    0.5019   -0.3401 C   0  0  0  0  0  0  0  0  0  0  0  0
    1.6464   -1.2553    2.0265 H   0  0  0  0  0  0  0  0  0  0  0  0
    0.8161   -1.9973   -1.4218 H   0  0  0  0  0  0  0  0  0  0  0  0
   -0.3002   -2.1364   -0.0536 H   0  0  0  0  0  0  0  0  0  0  0  0
   -1.8070   -1.3468    0.2646 H   0  0  0  0  0  0  0  0  0  0  0  0
   -2.7507   -0.6037   -1.0645 H   0  0  0  0  0  0  0  0  0  0  0  0
   -1.9417    0.7003    1.3309 H   0  0  0  0  0  0  0  0  0  0  0  0
   -2.4463    1.4722   -0.1822 H   0  0  0  0  0  0  0  0  0  0  0  0
   -0.3845    2.4361    0.4527 H   0  0  0  0  0  0  0  0  0  0  0  0
   -0.2467    1.5616   -1.0826 H   0  0  0  0  0  0  0  0  0  0  0  0
    1.0982    0.9971    1.6693 H   0  0  0  0  0  0  0  0  0  0  0  0
    2.9914    0.7086    0.0823 H   0  0  0  0  0  0  0  0  0  0  0  0
    1.8392    0.7290   -1.3932 H   0  0  0  0  0  0  0  0  0  0  0  0
  1  2  1  0
  2  3  1  0
  3  4  1  0
  4  5  1  0
  5  6  1  0
  6  7  1  0
  7  8  1  0
  8  9  1  0
  8  2  1  0
  9  2  1  0
  1 10  1  0
  3 11  1  0
  3 12  1  0
  5 13  1  0
  5 14  1  0
  6 15  1  0
  6 16  1  0
  7 17  1  0
  7 18  1  0
  8 19  1  0
  9 20  1  0
  9 21  1  0
M  END
