
     RDKit          3D

 21 22  0  0  0  0  0  0  0  0999 V2000
   -0.8637    2.0821    0.0622 O   0  0  0  0  0  0  0  0  0  0  0  0
   -0.6334    0.7326    0.3447 C   0  0  0  0  0  0  0  0  0  0  0  0
    0.3975    0.4980    1.3580 C   0  0  0  0  0  0  0  0  0  0  0  0
    1.6285    0.1965    0.9651 C   0  0  0  0  0  0  0  0  0  0  0  0
    1.9618    0.0961   -0.4971 C   0  0  0  0  0  0  0  0  0  0  0  0
    0.8356   -0.7222   -1.1121 C   0  0  0  0  0  0  0  0  0  0  0  0
   -0.5022   -0.1429   -0.8454 C   0  0  0  0  0  0  0  0  0  0  0  0
   -1.4228   -1.1443   -0.1404 C   0  0  0  0  0  0  0  0  0  0  0  0
   -1.9695    0.0500    0.6299 C   0  0  0  0  0  0  0  0  0  0  0  0
   -0.0376    2.5677   -0.1208 H   0  0  0  0  0  0  0  0  0  0  0  0
    0.2031    0.5593    2.4394 H   0  0  0  0  0  0  0  0  0  0  0  0
    2.4252    0.0149    1.6889 H   0  0  0  0  0  0  0  0  0  0  0  0
    2.0917    1.0724   -0.9685 H   0  0  0  0  0  0  0  0  0  0  0  0
    2.8881   -0.5159   -0.6275 H   0  0  0  0  0  0  0  0  0  0  0  0
    0.9325   -1.7516   -0.6631 H   0  0  0  0  0  0  0  0  0  0  0  0
    1.0014   -0.8291   -2.2092 H   0  0  0  0  0  0  0  0  0  0  0  0
   -0.9843    0.2597   -1.7635 H   0  0  0  0  0  0  0  0  0  0  0  0
   -0.8896   -1.8129    0.5620 H   0  0  0  0  0  0  0  0  0  0  0  0
   -2.1038   -1.5990   -0.8559 H   0  0  0  0  0  0  0  0  0  0  0  0
   -2.7882    0.5295    0.0568 H   0  0  0  0  0  0  0  0  0  0  0  0
   -2.1703   -0.1409    1.6965 H   0  0  0  0  0  0  0  0  0  0  0  0
  1  2  1  0
  2  3  1  0
  3  4  2  0
  4  5  1  0
  5  6  1  0
  6  7  1  0
  7  8  1  0
  8  9  1  0
  7  2  1  0
  9  2  1  0
  1 10  1  0
  3 11  1  0
  4 12  1  0
  5 13  1  0
  5 14  1  0
  6 15  1  0
  6 16  1  0
  7 17  1  0
  8 18  1  0
  8 19  1  0
  9 20  1  0
  9 21  1  0
M  END
