
     RDKit          2D

 19 21  0  0  0  0  0  0  0  0999 V2000
   -3.2232   -3.2232    0.0000 O   0  0  0  0  0  0  0  0  0  0  0  0
   -2.1625   -2.1625    0.0000 C   0  0  0  0  0  0  0  0  0  0  0  0
   -0.6810   -2.3972    0.0000 C   0  0  0  0  0  0  0  0  0  0  0  0
   -0.0000   -1.0607    0.0000 C   0  0  0  0  0  0  0  0  0  0  0  0
    1.0607    0.0000    0.0000 O   0  0  0  0  0  0  0  0  0  0  0  0
    0.0000    1.0607    0.0000 C   0  0  0  0  0  0  0  0  0  0  0  0
   -1.0607    0.0000    0.0000 C   0  0  0  0  0  0  0  0  0  0  0  0
   -2.3972   -0.6810    0.0000 C   0  0  0  0  0  0  0  0  0  0  0  0
   -0.8260   -1.4815    0.0000 C   0  0  0  0  0  0  0  0  0  0  0  0
   -4.6721   -2.8349    0.0000 H   0  0  0  0  0  0  0  0  0  0  0  0
   -1.0692   -3.8461    0.0000 H   0  0  0  0  0  0  0  0  0  0  0  0
    0.7194   -2.9347    0.0000 H   0  0  0  0  0  0  0  0  0  0  0  0
    1.2135   -1.9423    0.0000 H   0  0  0  0  0  0  0  0  0  0  0  0
   -1.0607    2.1213    0.0000 H   0  0  0  0  0  0  0  0  0  0  0  0
    1.0607    2.1213    0.0000 H   0  0  0  0  0  0  0  0  0  0  0  0
   -2.9347    0.7194    0.0000 H   0  0  0  0  0  0  0  0  0  0  0  0
   -3.8461   -1.0692    0.0000 H   0  0  0  0  0  0  0  0  0  0  0  0
   -0.0290   -1.4677    0.0000 H   0  0  0  0  0  0  0  0  0  0  0  0
    0.0344   -2.7102    0.0000 H   0  0  0  0  0  0  0  0  0  0  0  0
  1  2  1  0
  2  3  1  0
  3  4  1  0
  4  5  1  0
  5  6  1  0
  6  7  1  0
  7  8  1  0
  7  9  1  0
  8  2  1  0
  9  2  1  0
  7  4  1  0
  1 10  1  0
  3 11  1  0
  3 12  1  0
  4 13  1  0
  6 14  1  0
  6 15  1  0
  8 16  1  0
  8 17  1  0
  9 18  1  0
  9 19  1  0
M  END
