
     RDKit          3D

 17 19  0  0  0  0  0  0  0  0999 V2000
    1.5808   -1.1417   -0.9982 O   0  0  0  0  0  0  0  0  0  0  0  0
    0.8965   -0.2919   -0.3905 C   0  0  0  0  0  0  0  0  0  0  0  0
    1.4009    1.0211    0.2012 C   0  0  0  0  0  0  0  0  0  0  0  0
   -0.0701    0.9886    0.5469 C   0  0  0  0  0  0  0  0  0  0  0  0
   -0.2743    0.5045   -0.8544 C   0  0  0  0  0  0  0  0  0  0  0  0
   -1.4535   -0.1571   -1.0667 O   0  0  0  0  0  0  0  0  0  0  0  0
   -1.9612   -0.7223    0.0779 C   0  0  0  0  0  0  0  0  0  0  0  0
   -0.9600   -1.2282    0.9089 O   0  0  0  0  0  0  0  0  0  0  0  0
    0.1671   -0.4437    0.9192 C   0  0  0  0  0  0  0  0  0  0  0  0
    1.9265   -1.8838   -0.4456 H   0  0  0  0  0  0  0  0  0  0  0  0
    1.6798    1.7882   -0.5183 H   0  0  0  0  0  0  0  0  0  0  0  0
    2.0939    0.8336    1.0431 H   0  0  0  0  0  0  0  0  0  0  0  0
   -0.5832    1.6829    1.0483 H   0  0  0  0  0  0  0  0  0  0  0  0
    0.0218    1.2590   -1.5971 H   0  0  0  0  0  0  0  0  0  0  0  0
   -2.6092    0.0167    0.6063 H   0  0  0  0  0  0  0  0  0  0  0  0
   -2.6396   -1.5975   -0.1400 H   0  0  0  0  0  0  0  0  0  0  0  0
    0.7840   -0.6285    1.8068 H   0  0  0  0  0  0  0  0  0  0  0  0
  1  2  1  0
  2  3  1  0
  3  4  1  0
  4  5  1  0
  5  6  1  0
  6  7  1  0
  7  8  1  0
  8  9  1  0
  5  2  1  0
  9  2  1  0
  9  4  1  0
  1 10  1  0
  3 11  1  0
  3 12  1  0
  4 13  1  0
  5 14  1  0
  7 15  1  0
  7 16  1  0
  9 17  1  0
M  END
