
     RDKit          3D

 19 22  0  0  0  0  0  0  0  0999 V2000
    2.1959    1.0079   -0.9052 O   0  0  0  0  0  0  0  0  0  0  0  0
    1.1207    0.3580   -0.4759 C   0  0  0  0  0  0  0  0  0  0  0  0
    0.1312    0.9456    0.5444 C   0  0  0  0  0  0  0  0  0  0  0  0
   -1.2493    1.1167   -0.0279 C   0  0  0  0  0  0  0  0  0  0  0  0
   -1.5833   -0.2561   -0.6002 C   0  0  0  0  0  0  0  0  0  0  0  0
   -0.6202   -1.2297   -0.0210 C   0  0  0  0  0  0  0  0  0  0  0  0
    0.0184   -0.4566    1.1080 C   0  0  0  0  0  0  0  0  0  0  0  0
    1.3194   -0.7638    0.5714 C   0  0  0  0  0  0  0  0  0  0  0  0
    0.7474   -1.0534   -0.7167 C   0  0  0  0  0  0  0  0  0  0  0  0
    2.5995    1.6508   -0.3042 H   0  0  0  0  0  0  0  0  0  0  0  0
    0.5207    1.7128    1.1885 H   0  0  0  0  0  0  0  0  0  0  0  0
   -1.9406    1.2456    0.8456 H   0  0  0  0  0  0  0  0  0  0  0  0
   -1.3476    1.9152   -0.7564 H   0  0  0  0  0  0  0  0  0  0  0  0
   -1.3708   -0.1930   -1.7050 H   0  0  0  0  0  0  0  0  0  0  0  0
   -2.6366   -0.5145   -0.5071 H   0  0  0  0  0  0  0  0  0  0  0  0
   -0.9194   -2.2418    0.1617 H   0  0  0  0  0  0  0  0  0  0  0  0
   -0.3029   -0.5997    2.1005 H   0  0  0  0  0  0  0  0  0  0  0  0
    2.2515   -0.9553    1.0009 H   0  0  0  0  0  0  0  0  0  0  0  0
    1.0661   -1.6887   -1.5013 H   0  0  0  0  0  0  0  0  0  0  0  0
  1  2  1  0
  2  3  1  0
  3  4  1  0
  4  5  1  0
  5  6  1  0
  6  7  1  0
  7  8  1  0
  8  9  1  0
  8  2  1  0
  9  2  1  0
  7  3  1  0
  9  6  1  0
  1 10  1  0
  3 11  1  0
  4 12  1  0
  4 13  1  0
  5 14  1  0
  5 15  1  0
  6 16  1  0
  7 17  1  0
  8 18  1  0
  9 19  1  0
M  END
