
     RDKit          3D

 17 19  0  0  0  0  0  0  0  0999 V2000
   -1.5373    0.3368   -1.5675 O   0  0  0  0  0  0  0  0  0  0  0  0
   -0.6340    0.3640   -0.5284 C   0  0  0  0  0  0  0  0  0  0  0  0
   -1.1838    0.9682    0.7250 C   0  0  0  0  0  0  0  0  0  0  0  0
   -1.2811   -0.2952    1.3310 O   0  0  0  0  0  0  0  0  0  0  0  0
   -0.5324   -0.8690    0.3152 C   0  0  0  0  0  0  0  0  0  0  0  0
    0.9060   -0.9961    0.7386 C   0  0  0  0  0  0  0  0  0  0  0  0
    1.7007   -0.0048   -0.0703 C   0  0  0  0  0  0  0  0  0  0  0  0
    1.5005    1.3520    0.0935 O   0  0  0  0  0  0  0  0  0  0  0  0
    0.7764    0.6988   -0.8829 C   0  0  0  0  0  0  0  0  0  0  0  0
   -1.9848   -0.5297   -1.6533 H   0  0  0  0  0  0  0  0  0  0  0  0
   -2.2233    1.3738    0.6098 H   0  0  0  0  0  0  0  0  0  0  0  0
   -0.5335    1.6778    1.2529 H   0  0  0  0  0  0  0  0  0  0  0  0
   -0.9752   -1.7412   -0.1904 H   0  0  0  0  0  0  0  0  0  0  0  0
    1.0369   -0.8667    1.8229 H   0  0  0  0  0  0  0  0  0  0  0  0
    1.2662   -2.0121    0.4421 H   0  0  0  0  0  0  0  0  0  0  0  0
    2.6773   -0.3271   -0.4738 H   0  0  0  0  0  0  0  0  0  0  0  0
    1.0214    0.8706   -1.9646 H   0  0  0  0  0  0  0  0  0  0  0  0
  1  2  1  0
  2  3  1  0
  3  4  1  0
  4  5  1  0
  5  6  1  0
  6  7  1  0
  7  8  1  0
  8  9  1  0
  5  2  1  0
  9  7  1  0
  9  2  1  0
  1 10  1  0
  3 11  1  0
  3 12  1  0
  5 13  1  0
  6 14  1  0
  6 15  1  0
  7 16  1  0
  9 17  1  0
M  END
