
     RDKit          3D

 21 22  0  0  0  0  0  0  0  0999 V2000
   -2.5291    0.2473    0.4343 O   0  0  0  0  0  0  0  0  0  0  0  0
   -1.1619    0.2880    0.2458 C   0  0  0  0  0  0  0  0  0  0  0  0
   -0.5191    1.6350    0.2501 C   0  0  0  0  0  0  0  0  0  0  0  0
    0.8753    1.4747   -0.2996 C   0  0  0  0  0  0  0  0  0  0  0  0
    1.7272    0.4879   -0.1952 C   0  0  0  0  0  0  0  0  0  0  0  0
    1.5778   -0.9933   -0.3350 C   0  0  0  0  0  0  0  0  0  0  0  0
    0.1564   -1.3709    0.0241 C   0  0  0  0  0  0  0  0  0  0  0  0
   -0.7508   -0.5880   -0.8947 C   0  0  0  0  0  0  0  0  0  0  0  0
   -0.3663   -0.6003    1.1980 C   0  0  0  0  0  0  0  0  0  0  0  0
   -2.9710   -0.4090   -0.1785 H   0  0  0  0  0  0  0  0  0  0  0  0
   -1.0684    2.4147   -0.2837 H   0  0  0  0  0  0  0  0  0  0  0  0
   -0.4568    1.9694    1.3195 H   0  0  0  0  0  0  0  0  0  0  0  0
    1.1975    2.3532   -0.8799 H   0  0  0  0  0  0  0  0  0  0  0  0
    2.7670    0.7585    0.0404 H   0  0  0  0  0  0  0  0  0  0  0  0
    2.3189   -1.5576    0.2271 H   0  0  0  0  0  0  0  0  0  0  0  0
    1.7003   -1.2739   -1.4207 H   0  0  0  0  0  0  0  0  0  0  0  0
   -0.0439   -2.4394    0.1184 H   0  0  0  0  0  0  0  0  0  0  0  0
   -1.5672   -1.2021   -1.3216 H   0  0  0  0  0  0  0  0  0  0  0  0
   -0.2491    0.0051   -1.6772 H   0  0  0  0  0  0  0  0  0  0  0  0
    0.4235   -0.0720    1.7625 H   0  0  0  0  0  0  0  0  0  0  0  0
   -1.0603   -1.1274    1.8658 H   0  0  0  0  0  0  0  0  0  0  0  0
  1  2  1  0
  2  3  1  0
  3  4  1  0
  4  5  2  0
  5  6  1  0
  6  7  1  0
  7  8  1  0
  7  9  1  0
  8  2  1  0
  9  2  1  0
  1 10  1  0
  3 11  1  0
  3 12  1  0
  4 13  1  0
  5 14  1  0
  6 15  1  0
  6 16  1  0
  7 17  1  0
  8 18  1  0
  8 19  1  0
  9 20  1  0
  9 21  1  0
M  END
