
     RDKit          3D

 15 16  0  0  0  0  0  0  0  0999 V2000
   -1.7865   -0.4294   -0.9305 O   0  0  0  0  0  0  0  0  0  0  0  0
   -0.8188   -0.0647   -0.0344 C   0  0  0  0  0  0  0  0  0  0  0  0
   -0.0928   -1.1065    0.7859 C   0  0  0  0  0  0  0  0  0  0  0  0
    1.1078   -1.2443    0.1498 O   0  0  0  0  0  0  0  0  0  0  0  0
    1.4989   -0.0206   -0.3505 C   0  0  0  0  0  0  0  0  0  0  0  0
    0.2967    0.8003   -0.6261 C   0  0  0  0  0  0  0  0  0  0  0  0
   -0.5988    1.3190    0.4068 C   0  0  0  0  0  0  0  0  0  0  0  0
   -1.8908   -1.4089   -0.9548 H   0  0  0  0  0  0  0  0  0  0  0  0
    0.1075   -0.7338    1.8285 H   0  0  0  0  0  0  0  0  0  0  0  0
   -0.6369   -2.0602    0.8470 H   0  0  0  0  0  0  0  0  0  0  0  0
    2.0416   -0.2212   -1.3079 H   0  0  0  0  0  0  0  0  0  0  0  0
    2.2405    0.4480    0.3216 H   0  0  0  0  0  0  0  0  0  0  0  0
    0.1562    1.1680   -1.6787 H   0  0  0  0  0  0  0  0  0  0  0  0
   -0.2726    1.4901    1.4601 H   0  0  0  0  0  0  0  0  0  0  0  0
   -1.3520    2.0641    0.0831 H   0  0  0  0  0  0  0  0  0  0  0  0
  1  2  1  0
  2  3  1  0
  3  4  1  0
  4  5  1  0
  5  6  1  0
  6  7  1  0
  6  2  1  0
  7  2  1  0
  1  8  1  0
  3  9  1  0
  3 10  1  0
  5 11  1  0
  5 12  1  0
  6 13  1  0
  7 14  1  0
  7 15  1  0
M  END
