
     RDKit          3D

 18 20  0  0  0  0  0  0  0  0999 V2000
    2.2781    0.0591    1.0931 O   0  0  0  0  0  0  0  0  0  0  0  0
    1.0595   -0.1413    0.4779 C   0  0  0  0  0  0  0  0  0  0  0  0
    1.1014   -0.3956   -0.9860 C   0  0  0  0  0  0  0  0  0  0  0  0
   -0.1913    0.4058   -1.1144 C   0  0  0  0  0  0  0  0  0  0  0  0
   -1.3510   -0.4573   -0.7059 C   0  0  0  0  0  0  0  0  0  0  0  0
   -1.5215   -0.2132    0.7782 C   0  0  0  0  0  0  0  0  0  0  0  0
   -0.1439    0.2511    1.2186 C   0  0  0  0  0  0  0  0  0  0  0  0
    0.2412    1.1222    0.1292 C   0  0  0  0  0  0  0  0  0  0  0  0
    2.6129   -0.8294    1.3704 H   0  0  0  0  0  0  0  0  0  0  0  0
    1.0382   -1.4305   -1.3302 H   0  0  0  0  0  0  0  0  0  0  0  0
    1.9211    0.2230   -1.4547 H   0  0  0  0  0  0  0  0  0  0  0  0
   -0.2907    0.9860   -2.0283 H   0  0  0  0  0  0  0  0  0  0  0  0
   -1.1222   -1.5504   -0.8140 H   0  0  0  0  0  0  0  0  0  0  0  0
   -2.2664   -0.1964   -1.2738 H   0  0  0  0  0  0  0  0  0  0  0  0
   -2.2578    0.6285    0.9061 H   0  0  0  0  0  0  0  0  0  0  0  0
   -1.8033   -1.1057    1.3371 H   0  0  0  0  0  0  0  0  0  0  0  0
   -0.0230    0.5722    2.2487 H   0  0  0  0  0  0  0  0  0  0  0  0
    0.7188    2.0718    0.1481 H   0  0  0  0  0  0  0  0  0  0  0  0
  1  2  1  0
  2  3  1  0
  3  4  1  0
  4  5  1  0
  5  6  1  0
  6  7  1  0
  7  8  1  0
  7  2  1  0
  8  2  1  0
  8  4  1  0
  1  9  1  0
  3 10  1  0
  3 11  1  0
  4 12  1  0
  5 13  1  0
  5 14  1  0
  6 15  1  0
  6 16  1  0
  7 17  1  0
  8 18  1  0
M  END
