
     RDKit          3D

 17 19  0  0  0  0  0  0  0  0999 V2000
   -2.2947    0.4378   -1.2254 O   0  0  0  0  0  0  0  0  0  0  0  0
   -1.2764    0.2046   -0.2578 C   0  0  0  0  0  0  0  0  0  0  0  0
   -0.3254    1.2997   -0.0144 C   0  0  0  0  0  0  0  0  0  0  0  0
    0.9256    0.9058   -0.0588 C   0  0  0  0  0  0  0  0  0  0  0  0
    2.3790    0.5977   -0.0815 C   0  0  0  0  0  0  0  0  0  0  0  0
    1.9916   -0.4178   -1.0340 O   0  0  0  0  0  0  0  0  0  0  0  0
    0.9515   -0.6191   -0.1911 C   0  0  0  0  0  0  0  0  0  0  0  0
   -0.4135   -0.9505   -0.6092 C   0  0  0  0  0  0  0  0  0  0  0  0
   -1.3830   -0.9933    0.5970 C   0  0  0  0  0  0  0  0  0  0  0  0
   -2.9671    1.0113   -0.7908 H   0  0  0  0  0  0  0  0  0  0  0  0
   -0.6413    2.3305    0.1819 H   0  0  0  0  0  0  0  0  0  0  0  0
    2.6783    0.1508    0.8863 H   0  0  0  0  0  0  0  0  0  0  0  0
    3.0354    1.3540   -0.5128 H   0  0  0  0  0  0  0  0  0  0  0  0
    1.3016   -1.0968    0.7552 H   0  0  0  0  0  0  0  0  0  0  0  0
   -0.6646   -1.6731   -1.3791 H   0  0  0  0  0  0  0  0  0  0  0  0
   -0.9852   -0.9564    1.6064 H   0  0  0  0  0  0  0  0  0  0  0  0
   -2.3118   -1.5850    0.4777 H   0  0  0  0  0  0  0  0  0  0  0  0
  1  2  1  0
  2  3  1  0
  3  4  2  0
  4  5  1  0
  5  6  1  0
  6  7  1  0
  7  8  1  0
  8  9  1  0
  8  2  1  0
  9  2  1  0
  7  4  1  0
  1 10  1  0
  3 11  1  0
  5 12  1  0
  5 13  1  0
  7 14  1  0
  8 15  1  0
  9 16  1  0
  9 17  1  0
M  END
