
     RDKit          3D

 21 23  0  0  0  0  0  0  0  0999 V2000
    2.3123   -0.8421    0.0656 O   0  0  0  0  0  0  0  0  0  0  0  0
    1.1185   -0.2142    0.1949 C   0  0  0  0  0  0  0  0  0  0  0  0
    0.1909   -0.6791    1.2861 C   0  0  0  0  0  0  0  0  0  0  0  0
   -1.1506   -0.5847    0.6175 C   0  0  0  0  0  0  0  0  0  0  0  0
   -1.3815    0.8602    0.2525 C   0  0  0  0  0  0  0  0  0  0  0  0
   -0.1827    1.1661   -0.6577 C   0  0  0  0  0  0  0  0  0  0  0  0
    1.1214    1.3009    0.1427 C   0  0  0  0  0  0  0  0  0  0  0  0
    0.3074   -0.1762   -1.0931 C   0  0  0  0  0  0  0  0  0  0  0  0
   -0.8096   -1.1431   -0.7748 C   0  0  0  0  0  0  0  0  0  0  0  0
    2.2314   -1.5108   -0.6824 H   0  0  0  0  0  0  0  0  0  0  0  0
    0.4283   -1.6537    1.7018 H   0  0  0  0  0  0  0  0  0  0  0  0
    0.1957    0.0935    2.1075 H   0  0  0  0  0  0  0  0  0  0  0  0
   -1.9632   -1.0870    1.0969 H   0  0  0  0  0  0  0  0  0  0  0  0
   -1.4194    1.5195    1.1176 H   0  0  0  0  0  0  0  0  0  0  0  0
   -2.2759    0.9837   -0.4120 H   0  0  0  0  0  0  0  0  0  0  0  0
   -0.3500    1.9288   -1.4086 H   0  0  0  0  0  0  0  0  0  0  0  0
    1.0036    1.7885    1.1089 H   0  0  0  0  0  0  0  0  0  0  0  0
    1.9046    1.6888   -0.5315 H   0  0  0  0  0  0  0  0  0  0  0  0
    0.8333   -0.2831   -2.0155 H   0  0  0  0  0  0  0  0  0  0  0  0
   -0.4233   -2.1623   -0.7208 H   0  0  0  0  0  0  0  0  0  0  0  0
   -1.6913   -0.9937   -1.3957 H   0  0  0  0  0  0  0  0  0  0  0  0
  1  2  1  0
  2  3  1  0
  3  4  1  0
  4  5  1  0
  5  6  1  0
  6  7  1  0
  6  8  1  0
  8  9  1  0
  7  2  1  0
  8  2  1  0
  9  4  1  0
  1 10  1  0
  3 11  1  0
  3 12  1  0
  4 13  1  0
  5 14  1  0
  5 15  1  0
  6 16  1  0
  7 17  1  0
  7 18  1  0
  8 19  1  0
  9 20  1  0
  9 21  1  0
M  END
