
     RDKit          3D

 19 20  0  0  0  0  0  0  0  0999 V2000
    0.7649   -0.0112   -1.4709 O   0  0  0  0  0  0  0  0  0  0  0  0
    1.0004    0.0424   -0.0864 C   0  0  0  0  0  0  0  0  0  0  0  0
    0.6898   -1.2241    0.5961 C   0  0  0  0  0  0  0  0  0  0  0  0
   -0.6705   -1.6733    0.1287 C   0  0  0  0  0  0  0  0  0  0  0  0
   -1.7056   -1.0026   -0.3580 C   0  0  0  0  0  0  0  0  0  0  0  0
   -1.7632    0.4617   -0.5695 C   0  0  0  0  0  0  0  0  0  0  0  0
   -0.9309    1.4192   -0.1117 C   0  0  0  0  0  0  0  0  0  0  0  0
    0.2279    1.1412    0.7152 C   0  0  0  0  0  0  0  0  0  0  0  0
    1.6169    1.2290    0.4199 C   0  0  0  0  0  0  0  0  0  0  0  0
    1.6448    0.0147   -1.9605 H   0  0  0  0  0  0  0  0  0  0  0  0
    0.6644   -1.1804    1.6941 H   0  0  0  0  0  0  0  0  0  0  0  0
    1.3865   -2.0499    0.3104 H   0  0  0  0  0  0  0  0  0  0  0  0
   -0.8598   -2.7380    0.1931 H   0  0  0  0  0  0  0  0  0  0  0  0
   -2.5927   -1.5718   -0.6273 H   0  0  0  0  0  0  0  0  0  0  0  0
   -2.5947    0.7690   -1.1738 H   0  0  0  0  0  0  0  0  0  0  0  0
   -1.1965    2.4245   -0.4121 H   0  0  0  0  0  0  0  0  0  0  0  0
   -0.0663    0.8708    1.7722 H   0  0  0  0  0  0  0  0  0  0  0  0
    2.3403    1.1228    1.2708 H   0  0  0  0  0  0  0  0  0  0  0  0
    2.0444    1.9560   -0.3305 H   0  0  0  0  0  0  0  0  0  0  0  0
  1  2  1  0
  2  3  1  0
  3  4  1  0
  4  5  2  0
  5  6  1  0
  6  7  2  0
  7  8  1  0
  8  9  1  0
  8  2  1  0
  9  2  1  0
  1 10  1  0
  3 11  1  0
  3 12  1  0
  4 13  1  0
  5 14  1  0
  6 15  1  0
  7 16  1  0
  8 17  1  0
  9 18  1  0
  9 19  1  0
M  END
