
     RDKit          3D

 16 18  0  0  0  0  0  0  0  0999 V2000
    0.2004   -1.8893    0.7010 O   0  0  0  0  0  0  0  0  0  0  0  0
   -0.3388   -0.6358    0.9759 C   0  0  0  0  0  0  0  0  0  0  0  0
   -1.6860   -0.6016    0.4209 C   0  0  0  0  0  0  0  0  0  0  0  0
   -0.7930    0.3025   -0.1897 C   0  0  0  0  0  0  0  0  0  0  0  0
   -1.0253    1.6437    0.2577 O   0  0  0  0  0  0  0  0  0  0  0  0
    0.6220    0.1773   -0.6413 C   0  0  0  0  0  0  0  0  0  0  0  0
    1.8943    0.1034    0.0898 C   0  0  0  0  0  0  0  0  0  0  0  0
    0.7437    0.4480    0.8396 C   0  0  0  0  0  0  0  0  0  0  0  0
    0.5852   -1.9435   -0.1923 H   0  0  0  0  0  0  0  0  0  0  0  0
   -2.1350   -1.3859   -0.2575 H   0  0  0  0  0  0  0  0  0  0  0  0
   -2.4696   -0.2992    1.1604 H   0  0  0  0  0  0  0  0  0  0  0  0
   -1.9878    1.8056    0.3783 H   0  0  0  0  0  0  0  0  0  0  0  0
    0.7707    0.9595   -1.4479 H   0  0  0  0  0  0  0  0  0  0  0  0
    2.7260    0.8330    0.0258 H   0  0  0  0  0  0  0  0  0  0  0  0
    2.3184   -0.9396    0.2193 H   0  0  0  0  0  0  0  0  0  0  0  0
    0.5748    1.4222    1.2800 H   0  0  0  0  0  0  0  0  0  0  0  0
  1  2  1  0
  2  3  1  0
  3  4  1  0
  4  5  1  0
  4  6  1  0
  6  7  1  0
  7  8  1  0
  4  2  1  0
  8  6  1  0
  8  2  1  0
  1  9  1  0
  3 10  1  0
  3 11  1  0
  5 12  1  0
  6 13  1  0
  7 14  1  0
  7 15  1  0
  8 16  1  0
M  END
