
     RDKit          3D

 21 23  0  0  0  0  0  0  0  0999 V2000
   -1.5071    1.9380   -0.1129 O   0  0  0  0  0  0  0  0  0  0  0  0
   -0.6550    0.8627   -0.0858 C   0  0  0  0  0  0  0  0  0  0  0  0
    0.7248    1.1927   -0.6044 C   0  0  0  0  0  0  0  0  0  0  0  0
    1.6266    0.0191   -0.5366 C   0  0  0  0  0  0  0  0  0  0  0  0
    0.9989   -1.2399   -0.0438 C   0  0  0  0  0  0  0  0  0  0  0  0
   -0.4019   -1.4567   -0.3282 C   0  0  0  0  0  0  0  0  0  0  0  0
   -1.1639   -0.3113   -0.8939 C   0  0  0  0  0  0  0  0  0  0  0  0
    0.0452   -1.0888    1.0565 C   0  0  0  0  0  0  0  0  0  0  0  0
   -0.4769    0.2828    1.3049 C   0  0  0  0  0  0  0  0  0  0  0  0
   -2.0497    1.9120    0.7183 H   0  0  0  0  0  0  0  0  0  0  0  0
    1.0806    2.0608    0.0201 H   0  0  0  0  0  0  0  0  0  0  0  0
    0.6411    1.6280   -1.6433 H   0  0  0  0  0  0  0  0  0  0  0  0
    2.4542    0.2715    0.1916 H   0  0  0  0  0  0  0  0  0  0  0  0
    2.1591   -0.1754   -1.4975 H   0  0  0  0  0  0  0  0  0  0  0  0
    1.6888   -2.1027    0.0132 H   0  0  0  0  0  0  0  0  0  0  0  0
   -0.7887   -2.4923   -0.4106 H   0  0  0  0  0  0  0  0  0  0  0  0
   -0.8783   -0.1743   -1.9617 H   0  0  0  0  0  0  0  0  0  0  0  0
   -2.2510   -0.3597   -0.7440 H   0  0  0  0  0  0  0  0  0  0  0  0
    0.0113   -1.8580    1.8700 H   0  0  0  0  0  0  0  0  0  0  0  0
   -1.4735    0.2105    1.7674 H   0  0  0  0  0  0  0  0  0  0  0  0
    0.2154    0.8808    1.9208 H   0  0  0  0  0  0  0  0  0  0  0  0
  1  2  1  0
  2  3  1  0
  3  4  1  0
  4  5  1  0
  5  6  1  0
  6  7  1  0
  6  8  1  0
  8  9  1  0
  7  2  1  0
  9  2  1  0
  8  5  1  0
  1 10  1  0
  3 11  1  0
  3 12  1  0
  4 13  1  0
  4 14  1  0
  5 15  1  0
  6 16  1  0
  7 17  1  0
  7 18  1  0
  8 19  1  0
  9 20  1  0
  9 21  1  0
M  END
