
     RDKit          3D

 19 20  0  0  0  0  0  0  0  0999 V2000
   -0.0094    2.2881   -0.4746 O   0  0  0  0  0  0  0  0  0  0  0  0
    0.0587    0.9844    0.0727 C   0  0  0  0  0  0  0  0  0  0  0  0
    1.4323    0.4352    0.1399 C   0  0  0  0  0  0  0  0  0  0  0  0
    1.5384   -1.0451    0.1453 C   0  0  0  0  0  0  0  0  0  0  0  0
    0.6021   -1.6920   -0.6270 O   0  0  0  0  0  0  0  0  0  0  0  0
   -0.6794   -1.3981   -0.2325 C   0  0  0  0  0  0  0  0  0  0  0  0
   -1.0237    0.0467   -0.2174 C   0  0  0  0  0  0  0  0  0  0  0  0
   -1.9405    0.4404   -1.1913 O   0  0  0  0  0  0  0  0  0  0  0  0
   -0.9726    0.7280    1.1031 C   0  0  0  0  0  0  0  0  0  0  0  0
   -0.7885    2.3888   -1.0722 H   0  0  0  0  0  0  0  0  0  0  0  0
    1.9552    0.8681    1.0104 H   0  0  0  0  0  0  0  0  0  0  0  0
    1.9949    0.8110   -0.7602 H   0  0  0  0  0  0  0  0  0  0  0  0
    2.5522   -1.3194   -0.2673 H   0  0  0  0  0  0  0  0  0  0  0  0
    1.5573   -1.3885    1.2046 H   0  0  0  0  0  0  0  0  0  0  0  0
   -1.3776   -1.9853   -0.8897 H   0  0  0  0  0  0  0  0  0  0  0  0
   -0.8630   -1.8221    0.7982 H   0  0  0  0  0  0  0  0  0  0  0  0
   -1.6170    0.0242   -2.0535 H   0  0  0  0  0  0  0  0  0  0  0  0
   -1.7523    1.4854    1.3207 H   0  0  0  0  0  0  0  0  0  0  0  0
   -0.6671    0.1504    1.9909 H   0  0  0  0  0  0  0  0  0  0  0  0
  1  2  1  0
  2  3  1  0
  3  4  1  0
  4  5  1  0
  5  6  1  0
  6  7  1  0
  7  8  1  0
  7  9  1  0
  7  2  1  0
  9  2  1  0
  1 10  1  0
  3 11  1  0
  3 12  1  0
  4 13  1  0
  4 14  1  0
  6 15  1  0
  6 16  1  0
  8 17  1  0
  9 18  1  0
  9 19  1  0
M  END
