
     RDKit          3D

 17 19  0  0  0  0  0  0  0  0999 V2000
    2.0871    0.6291    0.1845 O   0  0  0  0  0  0  0  0  0  0  0  0
    0.8286    0.1786    0.2073 C   0  0  0  0  0  0  0  0  0  0  0  0
    0.6336   -1.2620    0.6238 C   0  0  0  0  0  0  0  0  0  0  0  0
   -0.5833   -1.6548    0.0976 O   0  0  0  0  0  0  0  0  0  0  0  0
   -1.1124   -0.5928   -0.6172 C   0  0  0  0  0  0  0  0  0  0  0  0
    0.1708    0.0414   -1.1778 C   0  0  0  0  0  0  0  0  0  0  0  0
   -1.5221    0.4665    0.3653 C   0  0  0  0  0  0  0  0  0  0  0  0
   -1.1591    0.3498    1.7063 O   0  0  0  0  0  0  0  0  0  0  0  0
   -0.1939    1.0008    0.9219 C   0  0  0  0  0  0  0  0  0  0  0  0
    2.1657    1.3938   -0.4447 H   0  0  0  0  0  0  0  0  0  0  0  0
    1.4231   -1.8489    0.0852 H   0  0  0  0  0  0  0  0  0  0  0  0
    0.7560   -1.4413    1.6868 H   0  0  0  0  0  0  0  0  0  0  0  0
   -1.8284   -0.8493   -1.3707 H   0  0  0  0  0  0  0  0  0  0  0  0
    0.6988   -0.7109   -1.7566 H   0  0  0  0  0  0  0  0  0  0  0  0
   -0.0043    0.9973   -1.6462 H   0  0  0  0  0  0  0  0  0  0  0  0
   -2.2708    1.2266    0.0700 H   0  0  0  0  0  0  0  0  0  0  0  0
   -0.0894    2.0761    1.0645 H   0  0  0  0  0  0  0  0  0  0  0  0
  1  2  1  0
  2  3  1  0
  3  4  1  0
  4  5  1  0
  5  6  1  0
  5  7  1  0
  7  8  1  0
  8  9  1  0
  6  2  1  0
  9  7  1  0
  9  2  1  0
  1 10  1  0
  3 11  1  0
  3 12  1  0
  5 13  1  0
  6 14  1  0
  6 15  1  0
  7 16  1  0
  9 17  1  0
M  END
