
     RDKit          3D

 21 23  0  0  0  0  0  0  0  0999 V2000
   -1.1748    1.9180    0.8798 O   0  0  0  0  0  0  0  0  0  0  0  0
   -0.9331    0.6071    0.5155 C   0  0  0  0  0  0  0  0  0  0  0  0
   -2.0990   -0.3119    0.4136 C   0  0  0  0  0  0  0  0  0  0  0  0
   -1.6892   -0.8257   -0.9457 C   0  0  0  0  0  0  0  0  0  0  0  0
   -0.6685    0.3221   -0.9865 C   0  0  0  0  0  0  0  0  0  0  0  0
    0.3626    0.2195    0.0350 C   0  0  0  0  0  0  0  0  0  0  0  0
    1.0515   -1.0769    0.2988 C   0  0  0  0  0  0  0  0  0  0  0  0
    2.3574   -0.3892   -0.1290 C   0  0  0  0  0  0  0  0  0  0  0  0
    1.6218    0.9365    0.1129 C   0  0  0  0  0  0  0  0  0  0  0  0
   -0.5434    2.2422    1.5876 H   0  0  0  0  0  0  0  0  0  0  0  0
   -2.0814   -1.0630    1.2304 H   0  0  0  0  0  0  0  0  0  0  0  0
   -3.0704    0.2315    0.3115 H   0  0  0  0  0  0  0  0  0  0  0  0
   -2.4463   -0.7905   -1.7318 H   0  0  0  0  0  0  0  0  0  0  0  0
   -1.1947   -1.8271   -0.8579 H   0  0  0  0  0  0  0  0  0  0  0  0
   -0.8649    1.1836   -1.6202 H   0  0  0  0  0  0  0  0  0  0  0  0
    1.0485   -1.3568    1.3760 H   0  0  0  0  0  0  0  0  0  0  0  0
    0.7952   -1.8918   -0.3898 H   0  0  0  0  0  0  0  0  0  0  0  0
    3.1959   -0.5535    0.5506 H   0  0  0  0  0  0  0  0  0  0  0  0
    2.6026   -0.5686   -1.1961 H   0  0  0  0  0  0  0  0  0  0  0  0
    1.8556    1.2748    1.1597 H   0  0  0  0  0  0  0  0  0  0  0  0
    1.8746    1.7195   -0.6142 H   0  0  0  0  0  0  0  0  0  0  0  0
  1  2  1  0
  2  3  1  0
  3  4  1  0
  4  5  1  0
  5  6  1  0
  6  7  1  0
  7  8  1  0
  8  9  1  0
  5  2  1  0
  9  6  1  0
  6  2  1  0
  1 10  1  0
  3 11  1  0
  3 12  1  0
  4 13  1  0
  4 14  1  0
  5 15  1  0
  7 16  1  0
  7 17  1  0
  8 18  1  0
  8 19  1  0
  9 20  1  0
  9 21  1  0
M  END
