
     RDKit          3D

 18 20  0  0  0  0  0  0  0  0999 V2000
    0.8297   -0.6025    1.8672 O   0  0  0  0  0  0  0  0  0  0  0  0
    0.7208   -0.2600    0.6715 C   0  0  0  0  0  0  0  0  0  0  0  0
    1.8022   -0.0954   -0.3613 C   0  0  0  0  0  0  0  0  0  0  0  0
    0.5485    0.2338   -1.1136 C   0  0  0  0  0  0  0  0  0  0  0  0
    0.1746    1.0273    0.1135 C   0  0  0  0  0  0  0  0  0  0  0  0
   -1.3197    0.9649    0.2302 C   0  0  0  0  0  0  0  0  0  0  0  0
   -1.5387   -0.5039   -0.1826 C   0  0  0  0  0  0  0  0  0  0  0  0
   -0.1088   -0.9085   -0.4113 C   0  0  0  0  0  0  0  0  0  0  0  0
    0.4856   -1.4811    2.1920 H   0  0  0  0  0  0  0  0  0  0  0  0
    2.3721    0.8390   -0.1546 H   0  0  0  0  0  0  0  0  0  0  0  0
    2.3623   -0.9729   -0.6534 H   0  0  0  0  0  0  0  0  0  0  0  0
    0.4557    0.5215   -2.0662 H   0  0  0  0  0  0  0  0  0  0  0  0
    0.6874    1.9431    0.3149 H   0  0  0  0  0  0  0  0  0  0  0  0
   -1.7787    1.6163   -0.5224 H   0  0  0  0  0  0  0  0  0  0  0  0
   -1.6834    1.1475    1.2469 H   0  0  0  0  0  0  0  0  0  0  0  0
   -2.1015   -0.5328   -1.1287 H   0  0  0  0  0  0  0  0  0  0  0  0
   -2.0220   -1.0219    0.6545 H   0  0  0  0  0  0  0  0  0  0  0  0
    0.1138   -1.9144   -0.6966 H   0  0  0  0  0  0  0  0  0  0  0  0
  1  2  1  0
  2  3  1  0
  3  4  1  0
  4  5  1  0
  5  6  1  0
  6  7  1  0
  7  8  1  0
  5  2  1  0
  8  2  1  0
  8  4  1  0
  1  9  1  0
  3 10  1  0
  3 11  1  0
  4 12  1  0
  5 13  1  0
  6 14  1  0
  6 15  1  0
  7 16  1  0
  7 17  1  0
  8 18  1  0
M  END
