
     RDKit          3D

 18 19  0  0  0  0  0  0  0  0999 V2000
   -1.5651    0.8098    1.2971 O   0  0  0  0  0  0  0  0  0  0  0  0
   -0.9411    0.3240    0.1575 C   0  0  0  0  0  0  0  0  0  0  0  0
    0.1319    1.2195   -0.4012 C   0  0  0  0  0  0  0  0  0  0  0  0
    1.3968    0.9185    0.4179 C   0  0  0  0  0  0  0  0  0  0  0  0
    1.8338   -0.4005   -0.1015 C   0  0  0  0  0  0  0  0  0  0  0  0
    0.9151   -1.3423   -0.1594 C   0  0  0  0  0  0  0  0  0  0  0  0
   -0.4678   -1.0941    0.2700 C   0  0  0  0  0  0  0  0  0  0  0  0
   -1.5549   -0.7384   -0.6726 C   0  0  0  0  0  0  0  0  0  0  0  0
   -2.5198    0.9592    1.2088 H   0  0  0  0  0  0  0  0  0  0  0  0
    0.2966    0.8877   -1.4659 H   0  0  0  0  0  0  0  0  0  0  0  0
   -0.1049    2.2782   -0.3451 H   0  0  0  0  0  0  0  0  0  0  0  0
    1.0969    0.7726    1.4711 H   0  0  0  0  0  0  0  0  0  0  0  0
    2.1475    1.7063    0.3156 H   0  0  0  0  0  0  0  0  0  0  0  0
    2.8440   -0.5412   -0.4020 H   0  0  0  0  0  0  0  0  0  0  0  0
    1.1775   -2.3250   -0.5311 H   0  0  0  0  0  0  0  0  0  0  0  0
   -0.7906   -1.7107    1.1403 H   0  0  0  0  0  0  0  0  0  0  0  0
   -1.3120   -0.7184   -1.7653 H   0  0  0  0  0  0  0  0  0  0  0  0
   -2.5839   -1.0049   -0.4341 H   0  0  0  0  0  0  0  0  0  0  0  0
  1  2  1  0
  2  3  1  0
  3  4  1  0
  4  5  1  0
  5  6  2  0
  6  7  1  0
  7  8  1  0
  7  2  1  0
  8  2  1  0
  1  9  1  0
  3 10  1  0
  3 11  1  0
  4 12  1  0
  4 13  1  0
  5 14  1  0
  6 15  1  0
  7 16  1  0
  8 17  1  0
  8 18  1  0
M  END
