
     RDKit          3D

 17 19  0  0  0  0  0  0  0  0999 V2000
   -1.0292   -1.7650   -0.1797 O   0  0  0  0  0  0  0  0  0  0  0  0
   -0.7718   -0.4237   -0.2096 C   0  0  0  0  0  0  0  0  0  0  0  0
   -1.8812    0.5803   -0.4090 C   0  0  0  0  0  0  0  0  0  0  0  0
   -1.6062    1.0502    0.8679 O   0  0  0  0  0  0  0  0  0  0  0  0
   -0.5140    0.2884    1.1624 C   0  0  0  0  0  0  0  0  0  0  0  0
    0.5204    0.0654    0.1906 C   0  0  0  0  0  0  0  0  0  0  0  0
    1.3757    1.0257   -0.4912 C   0  0  0  0  0  0  0  0  0  0  0  0
    2.2415   -0.0532   -0.7967 O   0  0  0  0  0  0  0  0  0  0  0  0
    1.7287   -0.7489    0.3261 C   0  0  0  0  0  0  0  0  0  0  0  0
   -1.7254   -2.0266   -0.8251 H   0  0  0  0  0  0  0  0  0  0  0  0
   -2.8685    0.1386   -0.5725 H   0  0  0  0  0  0  0  0  0  0  0  0
   -1.6602    1.3387   -1.2005 H   0  0  0  0  0  0  0  0  0  0  0  0
   -0.6025   -0.3730    2.0511 H   0  0  0  0  0  0  0  0  0  0  0  0
    0.9527    1.5282   -1.3772 H   0  0  0  0  0  0  0  0  0  0  0  0
    1.9590    1.7614    0.0995 H   0  0  0  0  0  0  0  0  0  0  0  0
    2.3427   -0.5621    1.2294 H   0  0  0  0  0  0  0  0  0  0  0  0
    1.5383   -1.8243    0.1344 H   0  0  0  0  0  0  0  0  0  0  0  0
  1  2  1  0
  2  3  1  0
  3  4  1  0
  4  5  1  0
  5  6  1  0
  6  7  1  0
  7  8  1  0
  8  9  1  0
  5  2  1  0
  9  6  1  0
  6  2  1  0
  1 10  1  0
  3 11  1  0
  3 12  1  0
  5 13  1  0
  7 14  1  0
  7 15  1  0
  9 16  1  0
  9 17  1  0
M  END
