
     RDKit          3D

 19 21  0  0  0  0  0  0  0  0999 V2000
   -0.4744    1.9113    0.5896 O   0  0  0  0  0  0  0  0  0  0  0  0
   -0.0573    0.5994    0.5561 C   0  0  0  0  0  0  0  0  0  0  0  0
    1.3240    0.4021    1.0691 C   0  0  0  0  0  0  0  0  0  0  0  0
    2.0974   -0.0148   -0.1495 C   0  0  0  0  0  0  0  0  0  0  0  0
    1.1871   -0.5955   -1.0139 O   0  0  0  0  0  0  0  0  0  0  0  0
   -0.0457   -0.0720   -0.7832 C   0  0  0  0  0  0  0  0  0  0  0  0
   -0.9784   -1.1338   -0.1936 C   0  0  0  0  0  0  0  0  0  0  0  0
   -2.3167   -0.6421    0.1617 C   0  0  0  0  0  0  0  0  0  0  0  0
   -1.1112   -0.3489    1.0441 C   0  0  0  0  0  0  0  0  0  0  0  0
   -0.3195    2.3532   -0.2715 H   0  0  0  0  0  0  0  0  0  0  0  0
    1.4290   -0.3668    1.8477 H   0  0  0  0  0  0  0  0  0  0  0  0
    1.7880    1.3286    1.4727 H   0  0  0  0  0  0  0  0  0  0  0  0
    2.9283   -0.7107    0.1085 H   0  0  0  0  0  0  0  0  0  0  0  0
    2.5607    0.8443   -0.6885 H   0  0  0  0  0  0  0  0  0  0  0  0
   -0.5367    0.5053   -1.5673 H   0  0  0  0  0  0  0  0  0  0  0  0
   -0.6912   -2.1805   -0.2331 H   0  0  0  0  0  0  0  0  0  0  0  0
   -3.0225   -1.3640    0.5738 H   0  0  0  0  0  0  0  0  0  0  0  0
   -2.6847    0.2616   -0.3873 H   0  0  0  0  0  0  0  0  0  0  0  0
   -1.0761   -0.7767    2.0506 H   0  0  0  0  0  0  0  0  0  0  0  0
  1  2  1  0
  2  3  1  0
  3  4  1  0
  4  5  1  0
  5  6  1  0
  6  7  1  0
  7  8  1  0
  8  9  1  0
  6  2  1  0
  9  7  1  0
  9  2  1  0
  1 10  1  0
  3 11  1  0
  3 12  1  0
  4 13  1  0
  4 14  1  0
  6 15  1  0
  7 16  1  0
  8 17  1  0
  8 18  1  0
  9 19  1  0
M  END
