
     RDKit          3D

 18 20  0  0  0  0  0  0  0  0999 V2000
    2.1107    0.1446    0.8846 O   0  0  0  0  0  0  0  0  0  0  0  0
    0.8980    0.0725    0.3528 C   0  0  0  0  0  0  0  0  0  0  0  0
   -0.1459   -0.7259    1.0973 C   0  0  0  0  0  0  0  0  0  0  0  0
   -1.3165   -0.5488    0.1178 C   0  0  0  0  0  0  0  0  0  0  0  0
   -1.1484    0.8171   -0.3897 C   0  0  0  0  0  0  0  0  0  0  0  0
    0.1452    1.3938    0.2004 C   0  0  0  0  0  0  0  0  0  0  0  0
   -0.7541   -0.3276   -1.2155 C   0  0  0  0  0  0  0  0  0  0  0  0
    0.7668   -0.4813   -1.0388 C   0  0  0  0  0  0  0  0  0  0  0  0
    2.3526   -0.7033    1.3299 H   0  0  0  0  0  0  0  0  0  0  0  0
    0.1153   -1.7713    1.2359 H   0  0  0  0  0  0  0  0  0  0  0  0
   -0.4018   -0.1719    2.0073 H   0  0  0  0  0  0  0  0  0  0  0  0
   -2.2684   -1.0134    0.3366 H   0  0  0  0  0  0  0  0  0  0  0  0
   -2.0019    1.4546   -0.5499 H   0  0  0  0  0  0  0  0  0  0  0  0
    0.6519    2.0643   -0.5082 H   0  0  0  0  0  0  0  0  0  0  0  0
   -0.0750    1.8500    1.1779 H   0  0  0  0  0  0  0  0  0  0  0  0
   -1.2148   -0.6259   -2.1482 H   0  0  0  0  0  0  0  0  0  0  0  0
    1.0486   -1.5580   -1.0789 H   0  0  0  0  0  0  0  0  0  0  0  0
    1.2379    0.1307   -1.8112 H   0  0  0  0  0  0  0  0  0  0  0  0
  1  2  1  0
  2  3  1  0
  3  4  1  0
  4  5  1  0
  5  6  1  0
  5  7  1  0
  7  8  1  0
  6  2  1  0
  8  2  1  0
  7  4  1  0
  1  9  1  0
  3 10  1  0
  3 11  1  0
  4 12  1  0
  5 13  1  0
  6 14  1  0
  6 15  1  0
  7 16  1  0
  8 17  1  0
  8 18  1  0
M  END
