
     RDKit          3D

 15 18  0  0  0  0  0  0  0  0999 V2000
    2.1164   -0.3524    0.4182 O   0  0  0  0  0  0  0  0  0  0  0  0
    0.8326   -0.0930    0.1622 C   0  0  0  0  0  0  0  0  0  0  0  0
    0.3535    1.2992   -0.0545 C   0  0  0  0  0  0  0  0  0  0  0  0
   -0.4341    1.5755   -1.2000 O   0  0  0  0  0  0  0  0  0  0  0  0
   -1.1602    1.0347   -0.1616 C   0  0  0  0  0  0  0  0  0  0  0  0
   -1.1709   -0.4645   -0.1071 C   0  0  0  0  0  0  0  0  0  0  0  0
    0.0646   -0.9241   -0.8009 C   0  0  0  0  0  0  0  0  0  0  0  0
    0.1319   -1.9426    0.1418 O   0  0  0  0  0  0  0  0  0  0  0  0
   -0.1927   -0.8495    0.9376 C   0  0  0  0  0  0  0  0  0  0  0  0
    2.7767   -0.1818   -0.2660 H   0  0  0  0  0  0  0  0  0  0  0  0
    0.6931    2.1424    0.5454 H   0  0  0  0  0  0  0  0  0  0  0  0
   -1.8168    1.6317    0.4685 H   0  0  0  0  0  0  0  0  0  0  0  0
   -2.0903   -0.9945   -0.2275 H   0  0  0  0  0  0  0  0  0  0  0  0
    0.2131   -1.0208   -1.7949 H   0  0  0  0  0  0  0  0  0  0  0  0
   -0.3170   -0.8604    1.9388 H   0  0  0  0  0  0  0  0  0  0  0  0
  1  2  1  0
  2  3  1  0
  3  4  1  0
  4  5  1  0
  5  6  1  0
  6  7  1  0
  7  8  1  0
  8  9  1  0
  7  2  1  0
  9  2  1  0
  5  3  1  0
  9  6  1  0
  1 10  1  0
  3 11  1  0
  5 12  1  0
  6 13  1  0
  7 14  1  0
  9 15  1  0
M  END
