
     RDKit          3D

 19 20  0  0  0  0  0  0  0  0999 V2000
    0.9999    1.5994   -1.1177 O   0  0  0  0  0  0  0  0  0  0  0  0
    0.5093    0.6395   -0.2292 C   0  0  0  0  0  0  0  0  0  0  0  0
   -0.4636    1.2089    0.7373 C   0  0  0  0  0  0  0  0  0  0  0  0
   -1.6833    0.7560    0.4985 C   0  0  0  0  0  0  0  0  0  0  0  0
   -1.7149   -0.1803   -0.6570 C   0  0  0  0  0  0  0  0  0  0  0  0
   -0.2505   -0.4530   -0.8996 C   0  0  0  0  0  0  0  0  0  0  0  0
    0.1677   -1.6846   -0.1841 C   0  0  0  0  0  0  0  0  0  0  0  0
    1.1964   -1.4558    0.5989 C   0  0  0  0  0  0  0  0  0  0  0  0
    1.6304   -0.0343    0.5320 C   0  0  0  0  0  0  0  0  0  0  0  0
    1.3338    2.3434   -0.5597 H   0  0  0  0  0  0  0  0  0  0  0  0
   -0.2396    1.9207    1.5627 H   0  0  0  0  0  0  0  0  0  0  0  0
   -2.5583    1.0639    1.1136 H   0  0  0  0  0  0  0  0  0  0  0  0
   -2.2299    0.2689   -1.5110 H   0  0  0  0  0  0  0  0  0  0  0  0
   -2.2124   -1.1429   -0.3956 H   0  0  0  0  0  0  0  0  0  0  0  0
   -0.0918   -0.5086   -1.9843 H   0  0  0  0  0  0  0  0  0  0  0  0
   -0.3444   -2.6489   -0.3189 H   0  0  0  0  0  0  0  0  0  0  0  0
    1.6775   -2.1979    1.2196 H   0  0  0  0  0  0  0  0  0  0  0  0
    2.6131    0.0813    0.0320 H   0  0  0  0  0  0  0  0  0  0  0  0
    1.6605    0.4242    1.5625 H   0  0  0  0  0  0  0  0  0  0  0  0
  1  2  1  0
  2  3  1  0
  3  4  2  0
  4  5  1  0
  5  6  1  0
  6  7  1  0
  7  8  2  0
  8  9  1  0
  6  2  1  0
  9  2  1  0
  1 10  1  0
  3 11  1  0
  4 12  1  0
  5 13  1  0
  5 14  1  0
  6 15  1  0
  7 16  1  0
  8 17  1  0
  9 18  1  0
  9 19  1  0
M  END
