
     RDKit          3D

 17 19  0  0  0  0  0  0  0  0999 V2000
    2.4145   -0.6379   -0.2205 O   0  0  0  0  0  0  0  0  0  0  0  0
    1.1283   -0.1907   -0.0757 C   0  0  0  0  0  0  0  0  0  0  0  0
    0.8613    1.2886    0.0210 C   0  0  0  0  0  0  0  0  0  0  0  0
   -0.3040    1.5556   -0.6551 O   0  0  0  0  0  0  0  0  0  0  0  0
   -1.0424    0.3969   -0.7431 C   0  0  0  0  0  0  0  0  0  0  0  0
   -1.7390    0.0424    0.5621 C   0  0  0  0  0  0  0  0  0  0  0  0
   -0.7930   -0.5638    1.3582 O   0  0  0  0  0  0  0  0  0  0  0  0
    0.1683   -1.1283    0.5557 C   0  0  0  0  0  0  0  0  0  0  0  0
   -0.0148   -0.7104   -0.8366 C   0  0  0  0  0  0  0  0  0  0  0  0
    2.8887   -0.4419    0.6499 H   0  0  0  0  0  0  0  0  0  0  0  0
    1.7191    1.8399   -0.4570 H   0  0  0  0  0  0  0  0  0  0  0  0
    0.7320    1.5561    1.0697 H   0  0  0  0  0  0  0  0  0  0  0  0
   -1.7508    0.3852   -1.5701 H   0  0  0  0  0  0  0  0  0  0  0  0
   -2.2605    0.8843    1.0139 H   0  0  0  0  0  0  0  0  0  0  0  0
   -2.4827   -0.7611    0.2866 H   0  0  0  0  0  0  0  0  0  0  0  0
    0.4212   -2.1664    0.7475 H   0  0  0  0  0  0  0  0  0  0  0  0
    0.0537   -1.3483   -1.7065 H   0  0  0  0  0  0  0  0  0  0  0  0
  1  2  1  0
  2  3  1  0
  3  4  1  0
  4  5  1  0
  5  6  1  0
  6  7  1  0
  7  8  1  0
  8  9  1  0
  8  2  1  0
  9  2  1  0
  9  5  1  0
  1 10  1  0
  3 11  1  0
  3 12  1  0
  5 13  1  0
  6 14  1  0
  6 15  1  0
  8 16  1  0
  9 17  1  0
M  END
