
     RDKit          3D

 16 17  0  0  0  0  0  0  0  0999 V2000
   -1.3105   -1.1949   -0.8704 O   0  0  0  0  0  0  0  0  0  0  0  0
   -0.5674   -0.2018   -0.2929 C   0  0  0  0  0  0  0  0  0  0  0  0
    0.4971    0.4389   -1.1414 C   0  0  0  0  0  0  0  0  0  0  0  0
    1.7451    0.0124   -0.4662 C   0  0  0  0  0  0  0  0  0  0  0  0
    1.5231   -0.5554    0.7058 C   0  0  0  0  0  0  0  0  0  0  0  0
    0.0700   -0.5993    1.0047 C   0  0  0  0  0  0  0  0  0  0  0  0
   -0.4575    0.5340    1.5828 O   0  0  0  0  0  0  0  0  0  0  0  0
   -1.3047    0.8366    0.5022 C   0  0  0  0  0  0  0  0  0  0  0  0
   -2.2518   -1.1372   -0.5102 H   0  0  0  0  0  0  0  0  0  0  0  0
    0.4234    1.5603   -1.1468 H   0  0  0  0  0  0  0  0  0  0  0  0
    0.4328    0.1111   -2.1958 H   0  0  0  0  0  0  0  0  0  0  0  0
    2.7262    0.1478   -0.8806 H   0  0  0  0  0  0  0  0  0  0  0  0
    2.2865   -0.9418    1.3706 H   0  0  0  0  0  0  0  0  0  0  0  0
   -0.3008   -1.5176    1.4836 H   0  0  0  0  0  0  0  0  0  0  0  0
   -2.3763    0.6189    0.6829 H   0  0  0  0  0  0  0  0  0  0  0  0
   -1.1351    1.8879    0.1717 H   0  0  0  0  0  0  0  0  0  0  0  0
  1  2  1  0
  2  3  1  0
  3  4  1  0
  4  5  2  0
  5  6  1  0
  6  7  1  0
  7  8  1  0
  6  2  1  0
  8  2  1  0
  1  9  1  0
  3 10  1  0
  3 11  1  0
  4 12  1  0
  5 13  1  0
  6 14  1  0
  8 15  1  0
  8 16  1  0
M  END
