
     RDKit          3D

 19 21  0  0  0  0  0  0  0  0999 V2000
    2.5896   -0.5770   -0.6402 O   0  0  0  0  0  0  0  0  0  0  0  0
    1.2036   -0.3457   -0.6099 C   0  0  0  0  0  0  0  0  0  0  0  0
    0.3866   -1.5485   -0.3509 C   0  0  0  0  0  0  0  0  0  0  0  0
   -0.4704   -0.8054    0.6418 C   0  0  0  0  0  0  0  0  0  0  0  0
   -1.6992   -0.1428    0.0432 C   0  0  0  0  0  0  0  0  0  0  0  0
   -1.3954    1.3612    0.0339 C   0  0  0  0  0  0  0  0  0  0  0  0
   -0.4274    1.5267   -0.9541 O   0  0  0  0  0  0  0  0  0  0  0  0
    0.7711    1.0377   -0.4514 C   0  0  0  0  0  0  0  0  0  0  0  0
    0.6486    0.1921    0.7482 C   0  0  0  0  0  0  0  0  0  0  0  0
    3.0615    0.2826   -0.7683 H   0  0  0  0  0  0  0  0  0  0  0  0
   -0.1392   -2.0217   -1.1870 H   0  0  0  0  0  0  0  0  0  0  0  0
    0.9585   -2.3471    0.2032 H   0  0  0  0  0  0  0  0  0  0  0  0
   -0.7058   -1.3417    1.5774 H   0  0  0  0  0  0  0  0  0  0  0  0
   -1.8913   -0.4888   -0.9933 H   0  0  0  0  0  0  0  0  0  0  0  0
   -2.5901   -0.2839    0.6551 H   0  0  0  0  0  0  0  0  0  0  0  0
   -2.3056    1.9369   -0.1323 H   0  0  0  0  0  0  0  0  0  0  0  0
   -0.9208    1.5758    1.0295 H   0  0  0  0  0  0  0  0  0  0  0  0
    1.5573    1.8196   -0.4043 H   0  0  0  0  0  0  0  0  0  0  0  0
    1.3685    0.1701    1.5595 H   0  0  0  0  0  0  0  0  0  0  0  0
  1  2  1  0
  2  3  1  0
  3  4  1  0
  4  5  1  0
  5  6  1  0
  6  7  1  0
  7  8  1  0
  8  9  1  0
  8  2  1  0
  9  2  1  0
  9  4  1  0
  1 10  1  0
  3 11  1  0
  3 12  1  0
  4 13  1  0
  5 14  1  0
  5 15  1  0
  6 16  1  0
  6 17  1  0
  8 18  1  0
  9 19  1  0
M  END
