
     RDKit          3D

 19 21  0  0  0  0  0  0  0  0999 V2000
   -1.3010    1.7396    0.8112 O   0  0  0  0  0  0  0  0  0  0  0  0
   -0.6271    0.6543    0.3961 C   0  0  0  0  0  0  0  0  0  0  0  0
   -0.7476   -0.5749    1.2714 C   0  0  0  0  0  0  0  0  0  0  0  0
   -0.3852   -1.6345    0.4588 O   0  0  0  0  0  0  0  0  0  0  0  0
   -0.2143   -1.1727   -0.8256 C   0  0  0  0  0  0  0  0  0  0  0  0
   -1.1799    0.0243   -0.8951 C   0  0  0  0  0  0  0  0  0  0  0  0
    1.1036   -0.4171   -0.8668 C   0  0  0  0  0  0  0  0  0  0  0  0
    1.8376   -0.1856    0.3779 C   0  0  0  0  0  0  0  0  0  0  0  0
    0.8074    0.8344    0.0268 C   0  0  0  0  0  0  0  0  0  0  0  0
   -0.9097    2.5518    0.4166 H   0  0  0  0  0  0  0  0  0  0  0  0
   -1.8504   -0.6738    1.4977 H   0  0  0  0  0  0  0  0  0  0  0  0
   -0.1929   -0.5039    2.2047 H   0  0  0  0  0  0  0  0  0  0  0  0
   -0.3546   -1.8779   -1.6168 H   0  0  0  0  0  0  0  0  0  0  0  0
   -0.9865    0.6510   -1.7618 H   0  0  0  0  0  0  0  0  0  0  0  0
   -2.2054   -0.3187   -0.7599 H   0  0  0  0  0  0  0  0  0  0  0  0
    1.5107   -0.1462   -1.8571 H   0  0  0  0  0  0  0  0  0  0  0  0
    2.8909    0.1470    0.2806 H   0  0  0  0  0  0  0  0  0  0  0  0
    1.6773   -0.8982    1.2007 H   0  0  0  0  0  0  0  0  0  0  0  0
    1.1272    1.8011   -0.3594 H   0  0  0  0  0  0  0  0  0  0  0  0
  1  2  1  0
  2  3  1  0
  3  4  1  0
  4  5  1  0
  5  6  1  0
  5  7  1  0
  7  8  1  0
  8  9  1  0
  6  2  1  0
  9  7  1  0
  9  2  1  0
  1 10  1  0
  3 11  1  0
  3 12  1  0
  5 13  1  0
  6 14  1  0
  6 15  1  0
  7 16  1  0
  8 17  1  0
  8 18  1  0
  9 19  1  0
M  END
