
     RDKit          3D

 19 22  0  0  0  0  0  0  0  0999 V2000
    2.3906   -0.7411   -0.2614 O   0  0  0  0  0  0  0  0  0  0  0  0
    1.1126   -0.3042   -0.1287 C   0  0  0  0  0  0  0  0  0  0  0  0
   -0.0608   -1.1968    0.0021 C   0  0  0  0  0  0  0  0  0  0  0  0
   -0.9936   -0.6603   -1.0939 C   0  0  0  0  0  0  0  0  0  0  0  0
   -0.8420    0.8262   -0.7313 C   0  0  0  0  0  0  0  0  0  0  0  0
   -0.7045    0.8604    0.7567 C   0  0  0  0  0  0  0  0  0  0  0  0
   -0.7805   -0.6055    1.2155 C   0  0  0  0  0  0  0  0  0  0  0  0
    0.7753    0.9824    0.5781 C   0  0  0  0  0  0  0  0  0  0  0  0
    0.6438    0.9508   -0.8313 C   0  0  0  0  0  0  0  0  0  0  0  0
    3.0412   -0.3897    0.3849 H   0  0  0  0  0  0  0  0  0  0  0  0
    0.0709   -2.2423    0.0106 H   0  0  0  0  0  0  0  0  0  0  0  0
   -0.5184   -0.8661   -2.0564 H   0  0  0  0  0  0  0  0  0  0  0  0
   -2.0143   -1.0112   -0.9798 H   0  0  0  0  0  0  0  0  0  0  0  0
   -1.4786    1.5161   -1.2337 H   0  0  0  0  0  0  0  0  0  0  0  0
   -1.2393    1.5775    1.3343 H   0  0  0  0  0  0  0  0  0  0  0  0
   -0.1937   -0.6788    2.1301 H   0  0  0  0  0  0  0  0  0  0  0  0
   -1.8160   -0.9239    1.2912 H   0  0  0  0  0  0  0  0  0  0  0  0
    1.4336    1.4914    1.2375 H   0  0  0  0  0  0  0  0  0  0  0  0
    1.1736    1.4152   -1.6244 H   0  0  0  0  0  0  0  0  0  0  0  0
  1  2  1  0
  2  3  1  0
  3  4  1  0
  4  5  1  0
  5  6  1  0
  6  7  1  0
  6  8  1  0
  8  9  1  0
  8  2  1  0
  9  2  1  0
  7  3  1  0
  9  5  1  0
  1 10  1  0
  3 11  1  0
  4 12  1  0
  4 13  1  0
  5 14  1  0
  6 15  1  0
  7 16  1  0
  7 17  1  0
  8 18  1  0
  9 19  1  0
M  END
