
     RDKit          3D

 17 19  0  0  0  0  0  0  0  0999 V2000
    1.9983   -0.2515    1.1732 O   0  0  0  0  0  0  0  0  0  0  0  0
    0.9908    0.0033    0.2783 C   0  0  0  0  0  0  0  0  0  0  0  0
    0.1917    1.2108    0.4764 C   0  0  0  0  0  0  0  0  0  0  0  0
   -1.0918    1.3856    0.1005 C   0  0  0  0  0  0  0  0  0  0  0  0
   -1.6874    0.2194   -0.5641 C   0  0  0  0  0  0  0  0  0  0  0  0
   -2.4162   -0.7849   -0.1330 O   0  0  0  0  0  0  0  0  0  0  0  0
   -1.2194   -0.8890    0.4093 C   0  0  0  0  0  0  0  0  0  0  0  0
    0.1026   -1.2364   -0.0675 C   0  0  0  0  0  0  0  0  0  0  0  0
    0.9395   -0.6154   -1.0625 C   0  0  0  0  0  0  0  0  0  0  0  0
    2.7167    0.4262    1.1016 H   0  0  0  0  0  0  0  0  0  0  0  0
    0.6747    2.0449    0.9720 H   0  0  0  0  0  0  0  0  0  0  0  0
   -1.5969    2.3269    0.2955 H   0  0  0  0  0  0  0  0  0  0  0  0
   -1.3674    0.1321   -1.6196 H   0  0  0  0  0  0  0  0  0  0  0  0
   -1.2443   -0.6488    1.5151 H   0  0  0  0  0  0  0  0  0  0  0  0
    0.4785   -2.2198    0.3574 H   0  0  0  0  0  0  0  0  0  0  0  0
    1.8953   -1.1505   -1.3469 H   0  0  0  0  0  0  0  0  0  0  0  0
    0.6351    0.0472   -1.8858 H   0  0  0  0  0  0  0  0  0  0  0  0
  1  2  1  0
  2  3  1  0
  3  4  2  0
  4  5  1  0
  5  6  1  0
  6  7  1  0
  7  8  1  0
  8  9  1  0
  8  2  1  0
  9  2  1  0
  7  5  1  0
  1 10  1  0
  3 11  1  0
  4 12  1  0
  5 13  1  0
  7 14  1  0
  8 15  1  0
  9 16  1  0
  9 17  1  0
M  END
