
     RDKit          3D

 19 20  0  0  0  0  0  0  0  0999 V2000
   -0.5664    1.3379    1.4570 O   0  0  0  0  0  0  0  0  0  0  0  0
   -0.1296    0.6364    0.3739 C   0  0  0  0  0  0  0  0  0  0  0  0
    1.2915    0.9324    0.0654 C   0  0  0  0  0  0  0  0  0  0  0  0
    1.8333   -0.3889   -0.3975 C   0  0  0  0  0  0  0  0  0  0  0  0
    0.8797   -1.3463   -0.2240 O   0  0  0  0  0  0  0  0  0  0  0  0
   -0.1361   -0.8618    0.5562 C   0  0  0  0  0  0  0  0  0  0  0  0
   -1.4499   -1.2423   -0.1032 C   0  0  0  0  0  0  0  0  0  0  0  0
   -2.1166   -0.0487   -0.3757 O   0  0  0  0  0  0  0  0  0  0  0  0
   -1.0522    0.7700   -0.8269 C   0  0  0  0  0  0  0  0  0  0  0  0
   -1.1041    0.8525    2.1056 H   0  0  0  0  0  0  0  0  0  0  0  0
    1.8202    1.2697    0.9881 H   0  0  0  0  0  0  0  0  0  0  0  0
    1.3525    1.7356   -0.6694 H   0  0  0  0  0  0  0  0  0  0  0  0
    2.0930   -0.2688   -1.4802 H   0  0  0  0  0  0  0  0  0  0  0  0
    2.7570   -0.6511    0.1447 H   0  0  0  0  0  0  0  0  0  0  0  0
   -0.0971   -1.1757    1.6090 H   0  0  0  0  0  0  0  0  0  0  0  0
   -1.2897   -1.7377   -1.0889 H   0  0  0  0  0  0  0  0  0  0  0  0
   -2.0904   -1.8541    0.5600 H   0  0  0  0  0  0  0  0  0  0  0  0
   -1.3730    1.7980   -1.0127 H   0  0  0  0  0  0  0  0  0  0  0  0
   -0.6221    0.2429   -1.6815 H   0  0  0  0  0  0  0  0  0  0  0  0
  1  2  1  0
  2  3  1  0
  3  4  1  0
  4  5  1  0
  5  6  1  0
  6  7  1  0
  7  8  1  0
  8  9  1  0
  6  2  1  0
  9  2  1  0
  1 10  1  0
  3 11  1  0
  3 12  1  0
  4 13  1  0
  4 14  1  0
  6 15  1  0
  7 16  1  0
  7 17  1  0
  9 18  1  0
  9 19  1  0
M  END
