
     RDKit          3D

 19 21  0  0  0  0  0  0  0  0999 V2000
   -1.6723   -1.3638    0.7618 O   0  0  0  0  0  0  0  0  0  0  0  0
   -0.7024   -0.5954    0.1702 C   0  0  0  0  0  0  0  0  0  0  0  0
    0.6389   -1.3137    0.0717 C   0  0  0  0  0  0  0  0  0  0  0  0
    1.5737   -0.1628   -0.2150 C   0  0  0  0  0  0  0  0  0  0  0  0
    0.9648    1.0601    0.4137 C   0  0  0  0  0  0  0  0  0  0  0  0
   -0.2454    1.6841   -0.1440 C   0  0  0  0  0  0  0  0  0  0  0  0
   -0.8789    1.2355   -1.2664 O   0  0  0  0  0  0  0  0  0  0  0  0
   -1.0546   -0.1140   -1.1981 C   0  0  0  0  0  0  0  0  0  0  0  0
   -0.3488    0.6494    0.9053 C   0  0  0  0  0  0  0  0  0  0  0  0
   -1.8247   -1.1761    1.7179 H   0  0  0  0  0  0  0  0  0  0  0  0
    0.8888   -1.8743    0.9746 H   0  0  0  0  0  0  0  0  0  0  0  0
    0.5702   -2.0005   -0.7964 H   0  0  0  0  0  0  0  0  0  0  0  0
    1.6657    0.0296   -1.2988 H   0  0  0  0  0  0  0  0  0  0  0  0
    2.5580   -0.3878    0.2174 H   0  0  0  0  0  0  0  0  0  0  0  0
    1.6365    1.7026    1.0400 H   0  0  0  0  0  0  0  0  0  0  0  0
   -0.4667    2.7134    0.1621 H   0  0  0  0  0  0  0  0  0  0  0  0
   -0.4123   -0.5855   -1.9857 H   0  0  0  0  0  0  0  0  0  0  0  0
   -2.1120   -0.4181   -1.3977 H   0  0  0  0  0  0  0  0  0  0  0  0
   -0.7787    0.9175    1.8673 H   0  0  0  0  0  0  0  0  0  0  0  0
  1  2  1  0
  2  3  1  0
  3  4  1  0
  4  5  1  0
  5  6  1  0
  6  7  1  0
  7  8  1  0
  6  9  1  0
  8  2  1  0
  9  2  1  0
  9  5  1  0
  1 10  1  0
  3 11  1  0
  3 12  1  0
  4 13  1  0
  4 14  1  0
  5 15  1  0
  6 16  1  0
  8 17  1  0
  8 18  1  0
  9 19  1  0
M  END
