
     RDKit          3D

 19 20  0  0  0  0  0  0  0  0999 V2000
   -2.1543    1.3307    0.2277 O   0  0  0  0  0  0  0  0  0  0  0  0
   -0.9605    0.6872    0.0940 C   0  0  0  0  0  0  0  0  0  0  0  0
    0.2506    1.5112    0.3780 C   0  0  0  0  0  0  0  0  0  0  0  0
    1.5076    1.0679    0.3707 C   0  0  0  0  0  0  0  0  0  0  0  0
    1.9764   -0.2952    0.0030 C   0  0  0  0  0  0  0  0  0  0  0  0
    1.2061   -1.3246   -0.3285 C   0  0  0  0  0  0  0  0  0  0  0  0
   -0.2914   -1.3140   -0.4802 C   0  0  0  0  0  0  0  0  0  0  0  0
   -0.8495   -0.6737    0.7819 C   0  0  0  0  0  0  0  0  0  0  0  0
   -0.7633   -0.0841   -1.2170 C   0  0  0  0  0  0  0  0  0  0  0  0
   -2.3694    1.4547    1.1820 H   0  0  0  0  0  0  0  0  0  0  0  0
    0.0678    2.5384    0.6029 H   0  0  0  0  0  0  0  0  0  0  0  0
    2.3014    1.7306    0.6535 H   0  0  0  0  0  0  0  0  0  0  0  0
    3.0449   -0.4458    0.0110 H   0  0  0  0  0  0  0  0  0  0  0  0
    1.6389   -2.2933   -0.5211 H   0  0  0  0  0  0  0  0  0  0  0  0
   -0.7181   -2.2655   -0.7643 H   0  0  0  0  0  0  0  0  0  0  0  0
   -0.2051   -0.6956    1.6571 H   0  0  0  0  0  0  0  0  0  0  0  0
   -1.8946   -1.0545    0.9361 H   0  0  0  0  0  0  0  0  0  0  0  0
   -1.7451   -0.2441   -1.6812 H   0  0  0  0  0  0  0  0  0  0  0  0
   -0.0424    0.3698   -1.9056 H   0  0  0  0  0  0  0  0  0  0  0  0
  1  2  1  0
  2  3  1  0
  3  4  2  0
  4  5  1  0
  5  6  2  0
  6  7  1  0
  7  8  1  0
  7  9  1  0
  8  2  1  0
  9  2  1  0
  1 10  1  0
  3 11  1  0
  4 12  1  0
  5 13  1  0
  6 14  1  0
  7 15  1  0
  8 16  1  0
  8 17  1  0
  9 18  1  0
  9 19  1  0
M  END
