
     RDKit          3D

 19 20  0  0  0  0  0  0  0  0999 V2000
    2.1898    0.2169   -0.8332 O   0  0  0  0  0  0  0  0  0  0  0  0
    0.9994    0.1011   -0.2059 C   0  0  0  0  0  0  0  0  0  0  0  0
    0.3594    1.3772    0.2378 C   0  0  0  0  0  0  0  0  0  0  0  0
   -0.9159    1.5321   -0.3417 O   0  0  0  0  0  0  0  0  0  0  0  0
   -1.7744    0.5247    0.1077 C   0  0  0  0  0  0  0  0  0  0  0  0
   -1.0479   -0.8277    0.1527 C   0  0  0  0  0  0  0  0  0  0  0  0
   -0.0364   -0.7107   -0.9999 C   0  0  0  0  0  0  0  0  0  0  0  0
   -0.3215   -0.9097    1.3130 O   0  0  0  0  0  0  0  0  0  0  0  0
    1.0307   -0.8380    1.0052 C   0  0  0  0  0  0  0  0  0  0  0  0
    2.0757    0.5816   -1.7229 H   0  0  0  0  0  0  0  0  0  0  0  0
    0.9736    2.2508    0.0288 H   0  0  0  0  0  0  0  0  0  0  0  0
    0.1618    1.3939    1.3501 H   0  0  0  0  0  0  0  0  0  0  0  0
   -2.6130    0.4355   -0.6413 H   0  0  0  0  0  0  0  0  0  0  0  0
   -2.2057    0.7393    1.1001 H   0  0  0  0  0  0  0  0  0  0  0  0
   -1.7444   -1.6582    0.0023 H   0  0  0  0  0  0  0  0  0  0  0  0
   -0.4376   -0.1641   -1.8447 H   0  0  0  0  0  0  0  0  0  0  0  0
    0.3311   -1.7157   -1.1878 H   0  0  0  0  0  0  0  0  0  0  0  0
    1.3233   -1.8755    0.6720 H   0  0  0  0  0  0  0  0  0  0  0  0
    1.6517   -0.4535    1.8078 H   0  0  0  0  0  0  0  0  0  0  0  0
  1  2  1  0
  2  3  1  0
  3  4  1  0
  4  5  1  0
  5  6  1  0
  6  7  1  0
  6  8  1  0
  8  9  1  0
  7  2  1  0
  9  2  1  0
  1 10  1  0
  3 11  1  0
  3 12  1  0
  5 13  1  0
  5 14  1  0
  6 15  1  0
  7 16  1  0
  7 17  1  0
  9 18  1  0
  9 19  1  0
M  END
