
     RDKit          3D

 17 19  0  0  0  0  0  0  0  0999 V2000
   -1.7101    1.0573    0.7206 O   0  0  0  0  0  0  0  0  0  0  0  0
   -0.6731    0.4309    0.1039 C   0  0  0  0  0  0  0  0  0  0  0  0
   -1.0824   -0.7628   -0.7458 C   0  0  0  0  0  0  0  0  0  0  0  0
    0.0288   -1.5529   -0.8538 O   0  0  0  0  0  0  0  0  0  0  0  0
    0.9025   -1.2933    0.1563 C   0  0  0  0  0  0  0  0  0  0  0  0
    1.6137   -0.0110    0.3138 C   0  0  0  0  0  0  0  0  0  0  0  0
    1.4846    1.0452   -0.5364 O   0  0  0  0  0  0  0  0  0  0  0  0
    0.1701    1.3127   -0.7815 C   0  0  0  0  0  0  0  0  0  0  0  0
    0.3483   -0.1825    1.0078 C   0  0  0  0  0  0  0  0  0  0  0  0
   -1.7753    0.6955    1.6598 H   0  0  0  0  0  0  0  0  0  0  0  0
   -1.9688   -1.2411   -0.3260 H   0  0  0  0  0  0  0  0  0  0  0  0
   -1.3134   -0.3502   -1.7596 H   0  0  0  0  0  0  0  0  0  0  0  0
    1.3303   -2.1762    0.6695 H   0  0  0  0  0  0  0  0  0  0  0  0
    2.6056   -0.0452    0.8457 H   0  0  0  0  0  0  0  0  0  0  0  0
   -0.1334    2.3650   -0.6493 H   0  0  0  0  0  0  0  0  0  0  0  0
   -0.0144    1.0916   -1.8756 H   0  0  0  0  0  0  0  0  0  0  0  0
    0.1871   -0.3833    2.0505 H   0  0  0  0  0  0  0  0  0  0  0  0
  1  2  1  0
  2  3  1  0
  3  4  1  0
  4  5  1  0
  5  6  1  0
  6  7  1  0
  7  8  1  0
  6  9  1  0
  8  2  1  0
  9  2  1  0
  9  5  1  0
  1 10  1  0
  3 11  1  0
  3 12  1  0
  5 13  1  0
  6 14  1  0
  8 15  1  0
  8 16  1  0
  9 17  1  0
M  END
