
     RDKit          3D

 21 22  0  0  0  0  0  0  0  0999 V2000
   -0.9306    2.3150    0.0752 O   0  0  0  0  0  0  0  0  0  0  0  0
   -0.4274    1.0484    0.1338 C   0  0  0  0  0  0  0  0  0  0  0  0
   -0.4551    0.4496    1.5015 C   0  0  0  0  0  0  0  0  0  0  0  0
    0.0551   -0.7762    1.5697 C   0  0  0  0  0  0  0  0  0  0  0  0
    0.5421   -1.3050    0.2385 C   0  0  0  0  0  0  0  0  0  0  0  0
    1.5906   -0.3593   -0.3488 C   0  0  0  0  0  0  0  0  0  0  0  0
    1.0444    1.0378   -0.2841 C   0  0  0  0  0  0  0  0  0  0  0  0
   -0.6160   -1.2795   -0.7486 C   0  0  0  0  0  0  0  0  0  0  0  0
   -1.2214    0.0869   -0.7490 C   0  0  0  0  0  0  0  0  0  0  0  0
   -1.7925    2.4217   -0.3596 H   0  0  0  0  0  0  0  0  0  0  0  0
   -0.8651    1.0192    2.3028 H   0  0  0  0  0  0  0  0  0  0  0  0
    0.1251   -1.3567    2.4768 H   0  0  0  0  0  0  0  0  0  0  0  0
    0.9677   -2.3180    0.3590 H   0  0  0  0  0  0  0  0  0  0  0  0
    1.6930   -0.6848   -1.4254 H   0  0  0  0  0  0  0  0  0  0  0  0
    2.5591   -0.4632    0.1619 H   0  0  0  0  0  0  0  0  0  0  0  0
    1.5827    1.5552    0.5594 H   0  0  0  0  0  0  0  0  0  0  0  0
    1.2269    1.6388   -1.1752 H   0  0  0  0  0  0  0  0  0  0  0  0
   -0.1619   -1.4727   -1.7532 H   0  0  0  0  0  0  0  0  0  0  0  0
   -1.3256   -2.0823   -0.4875 H   0  0  0  0  0  0  0  0  0  0  0  0
   -1.3548    0.5049   -1.7740 H   0  0  0  0  0  0  0  0  0  0  0  0
   -2.2361    0.0202   -0.2733 H   0  0  0  0  0  0  0  0  0  0  0  0
  1  2  1  0
  2  3  1  0
  3  4  2  0
  4  5  1  0
  5  6  1  0
  6  7  1  0
  5  8  1  0
  8  9  1  0
  7  2  1  0
  9  2  1  0
  1 10  1  0
  3 11  1  0
  4 12  1  0
  5 13  1  0
  6 14  1  0
  6 15  1  0
  7 16  1  0
  7 17  1  0
  8 18  1  0
  8 19  1  0
  9 20  1  0
  9 21  1  0
M  END
