
     RDKit          3D

 21 22  0  0  0  0  0  0  0  0999 V2000
    2.4979    0.1901    0.0960 O   0  0  0  0  0  0  0  0  0  0  0  0
    1.1356    0.1760   -0.0943 C   0  0  0  0  0  0  0  0  0  0  0  0
    0.5800    1.5137   -0.4465 C   0  0  0  0  0  0  0  0  0  0  0  0
   -0.6760    1.7611   -0.0945 C   0  0  0  0  0  0  0  0  0  0  0  0
   -1.6064    0.6029   -0.0005 C   0  0  0  0  0  0  0  0  0  0  0  0
   -0.9559   -0.6030    0.5887 C   0  0  0  0  0  0  0  0  0  0  0  0
   -0.4956   -1.5839   -0.4808 C   0  0  0  0  0  0  0  0  0  0  0  0
    0.6911   -0.8753   -1.0880 C   0  0  0  0  0  0  0  0  0  0  0  0
    0.3959   -0.2233    1.1924 C   0  0  0  0  0  0  0  0  0  0  0  0
    2.6571    0.4708    1.0442 H   0  0  0  0  0  0  0  0  0  0  0  0
    1.1438    2.2626   -0.9590 H   0  0  0  0  0  0  0  0  0  0  0  0
   -1.0241    2.7880    0.1219 H   0  0  0  0  0  0  0  0  0  0  0  0
   -2.0246    0.4277   -1.0120 H   0  0  0  0  0  0  0  0  0  0  0  0
   -2.4792    0.8724    0.6541 H   0  0  0  0  0  0  0  0  0  0  0  0
   -1.5594   -1.0967    1.3737 H   0  0  0  0  0  0  0  0  0  0  0  0
   -0.0921   -2.4674    0.0845 H   0  0  0  0  0  0  0  0  0  0  0  0
   -1.2755   -1.8427   -1.1944 H   0  0  0  0  0  0  0  0  0  0  0  0
    1.5179   -1.5838   -1.2454 H   0  0  0  0  0  0  0  0  0  0  0  0
    0.3914   -0.3969   -2.0643 H   0  0  0  0  0  0  0  0  0  0  0  0
    0.3046    0.6785    1.8338 H   0  0  0  0  0  0  0  0  0  0  0  0
    0.8735   -1.0706    1.6903 H   0  0  0  0  0  0  0  0  0  0  0  0
  1  2  1  0
  2  3  1  0
  3  4  2  0
  4  5  1  0
  5  6  1  0
  6  7  1  0
  7  8  1  0
  6  9  1  0
  8  2  1  0
  9  2  1  0
  1 10  1  0
  3 11  1  0
  4 12  1  0
  5 13  1  0
  5 14  1  0
  6 15  1  0
  7 16  1  0
  7 17  1  0
  8 18  1  0
  8 19  1  0
  9 20  1  0
  9 21  1  0
M  END
