
     RDKit          3D

 17 20  0  0  0  0  0  0  0  0999 V2000
   -1.5545   -1.3484    0.8302 O   0  0  0  0  0  0  0  0  0  0  0  0
   -0.7699   -0.3810    0.3467 C   0  0  0  0  0  0  0  0  0  0  0  0
   -1.3577    0.9130   -0.1264 C   0  0  0  0  0  0  0  0  0  0  0  0
   -0.4919    1.5014   -1.0033 O   0  0  0  0  0  0  0  0  0  0  0  0
    0.6086    0.7017   -1.1865 C   0  0  0  0  0  0  0  0  0  0  0  0
    1.4179    0.5974    0.1245 C   0  0  0  0  0  0  0  0  0  0  0  0
    1.2453   -0.8548    0.0482 C   0  0  0  0  0  0  0  0  0  0  0  0
    0.1250   -0.6911   -0.8414 C   0  0  0  0  0  0  0  0  0  0  0  0
    0.5442   -0.0886    1.0897 C   0  0  0  0  0  0  0  0  0  0  0  0
   -1.8167   -1.1722    1.7494 H   0  0  0  0  0  0  0  0  0  0  0  0
   -1.6250    1.5390    0.7520 H   0  0  0  0  0  0  0  0  0  0  0  0
   -2.3279    0.6752   -0.6451 H   0  0  0  0  0  0  0  0  0  0  0  0
    1.1902    0.8214   -2.0836 H   0  0  0  0  0  0  0  0  0  0  0  0
    2.3480    1.0682    0.2639 H   0  0  0  0  0  0  0  0  0  0  0  0
    1.9604   -1.6155    0.1661 H   0  0  0  0  0  0  0  0  0  0  0  0
   -0.1985   -1.3460   -1.5896 H   0  0  0  0  0  0  0  0  0  0  0  0
    0.7025   -0.3196    2.1052 H   0  0  0  0  0  0  0  0  0  0  0  0
  1  2  1  0
  2  3  1  0
  3  4  1  0
  4  5  1  0
  5  6  1  0
  6  7  1  0
  7  8  1  0
  7  9  1  0
  8  2  1  0
  9  2  1  0
  8  5  1  0
  9  6  1  0
  1 10  1  0
  3 11  1  0
  3 12  1  0
  5 13  1  0
  6 14  1  0
  7 15  1  0
  8 16  1  0
  9 17  1  0
M  END
