
     RDKit          3D

 19 21  0  0  0  0  0  0  0  0999 V2000
   -0.4459    1.7368    1.4201 O   0  0  0  0  0  0  0  0  0  0  0  0
   -0.2347    0.6928    0.5716 C   0  0  0  0  0  0  0  0  0  0  0  0
   -0.8075   -0.6465    0.9706 C   0  0  0  0  0  0  0  0  0  0  0  0
   -1.1212   -0.8397   -0.5010 C   0  0  0  0  0  0  0  0  0  0  0  0
   -1.2511    0.6870   -0.5823 C   0  0  0  0  0  0  0  0  0  0  0  0
   -0.0263   -1.2181   -1.2252 O   0  0  0  0  0  0  0  0  0  0  0  0
    1.0470   -0.3863   -1.1847 C   0  0  0  0  0  0  0  0  0  0  0  0
    1.9575   -0.6153    0.0355 C   0  0  0  0  0  0  0  0  0  0  0  0
    1.1159    0.5686   -0.0657 C   0  0  0  0  0  0  0  0  0  0  0  0
   -1.2557    1.5106    1.9787 H   0  0  0  0  0  0  0  0  0  0  0  0
   -0.1289   -1.3629    1.4234 H   0  0  0  0  0  0  0  0  0  0  0  0
   -1.7415   -0.4794    1.5535 H   0  0  0  0  0  0  0  0  0  0  0  0
   -2.0203   -1.3968   -0.7363 H   0  0  0  0  0  0  0  0  0  0  0  0
   -0.8212    1.1269   -1.4913 H   0  0  0  0  0  0  0  0  0  0  0  0
   -2.2210    1.0835   -0.2851 H   0  0  0  0  0  0  0  0  0  0  0  0
    1.5388   -0.0563   -2.1288 H   0  0  0  0  0  0  0  0  0  0  0  0
    3.0402   -0.4776   -0.1898 H   0  0  0  0  0  0  0  0  0  0  0  0
    1.7640   -1.4837    0.6745 H   0  0  0  0  0  0  0  0  0  0  0  0
    1.6119    1.5565   -0.2377 H   0  0  0  0  0  0  0  0  0  0  0  0
  1  2  1  0
  2  3  1  0
  3  4  1  0
  4  5  1  0
  4  6  1  0
  6  7  1  0
  7  8  1  0
  8  9  1  0
  5  2  1  0
  9  7  1  0
  9  2  1  0
  1 10  1  0
  3 11  1  0
  3 12  1  0
  4 13  1  0
  5 14  1  0
  5 15  1  0
  7 16  1  0
  8 17  1  0
  8 18  1  0
  9 19  1  0
M  END
