
     RDKit          3D

 19 20  0  0  0  0  0  0  0  0999 V2000
   -2.6303    0.4145    0.2058 O   0  0  0  0  0  0  0  0  0  0  0  0
   -1.3002    0.1059   -0.1565 C   0  0  0  0  0  0  0  0  0  0  0  0
   -0.4089    1.2984   -0.2108 C   0  0  0  0  0  0  0  0  0  0  0  0
    0.7057    1.1410   -1.0170 O   0  0  0  0  0  0  0  0  0  0  0  0
    1.7822    0.8543   -0.1538 C   0  0  0  0  0  0  0  0  0  0  0  0
    1.6181   -0.6349    0.1831 C   0  0  0  0  0  0  0  0  0  0  0  0
    0.5917   -0.7308    1.0747 O   0  0  0  0  0  0  0  0  0  0  0  0
   -0.6286   -1.0477    0.5775 C   0  0  0  0  0  0  0  0  0  0  0  0
   -0.9961   -1.1670   -0.8211 C   0  0  0  0  0  0  0  0  0  0  0  0
   -2.6481    0.3351    1.1942 H   0  0  0  0  0  0  0  0  0  0  0  0
   -0.1215    1.5502    0.8482 H   0  0  0  0  0  0  0  0  0  0  0  0
   -0.9697    2.1690   -0.5913 H   0  0  0  0  0  0  0  0  0  0  0  0
    1.5998    1.4018    0.8088 H   0  0  0  0  0  0  0  0  0  0  0  0
    2.7506    1.0788   -0.5911 H   0  0  0  0  0  0  0  0  0  0  0  0
    1.5493   -1.2503   -0.7103 H   0  0  0  0  0  0  0  0  0  0  0  0
    2.5595   -0.9456    0.7266 H   0  0  0  0  0  0  0  0  0  0  0  0
   -1.2993   -1.5400    1.3424 H   0  0  0  0  0  0  0  0  0  0  0  0
   -0.2582   -1.2227   -1.6546 H   0  0  0  0  0  0  0  0  0  0  0  0
   -1.8959   -1.8101   -1.0549 H   0  0  0  0  0  0  0  0  0  0  0  0
  1  2  1  0
  2  3  1  0
  3  4  1  0
  4  5  1  0
  5  6  1  0
  6  7  1  0
  7  8  1  0
  8  9  1  0
  8  2  1  0
  9  2  1  0
  1 10  1  0
  3 11  1  0
  3 12  1  0
  5 13  1  0
  5 14  1  0
  6 15  1  0
  6 16  1  0
  8 17  1  0
  9 18  1  0
  9 19  1  0
M  END
