
     RDKit          3D

 15 17  0  0  0  0  0  0  0  0999 V2000
   -2.2738    0.1703   -0.6201 O   0  0  0  0  0  0  0  0  0  0  0  0
   -0.9927    0.1769   -0.2690 C   0  0  0  0  0  0  0  0  0  0  0  0
   -0.4227    1.3168    0.4874 C   0  0  0  0  0  0  0  0  0  0  0  0
    0.8389    0.9167    0.7289 C   0  0  0  0  0  0  0  0  0  0  0  0
    0.9329   -0.3823    0.0519 C   0  0  0  0  0  0  0  0  0  0  0  0
    2.0800   -1.0555    0.0060 O   0  0  0  0  0  0  0  0  0  0  0  0
   -0.3577   -1.0513    0.3218 C   0  0  0  0  0  0  0  0  0  0  0  0
   -0.3197   -1.5513   -0.9672 O   0  0  0  0  0  0  0  0  0  0  0  0
    0.0861   -0.2446   -1.1803 C   0  0  0  0  0  0  0  0  0  0  0  0
   -2.8412   -0.1264    0.1552 H   0  0  0  0  0  0  0  0  0  0  0  0
   -0.9275    2.2300    0.7600 H   0  0  0  0  0  0  0  0  0  0  0  0
    1.6331    1.3998    1.2833 H   0  0  0  0  0  0  0  0  0  0  0  0
    2.8504   -0.4243    0.1459 H   0  0  0  0  0  0  0  0  0  0  0  0
   -0.6609   -1.5357    1.1545 H   0  0  0  0  0  0  0  0  0  0  0  0
    0.3749    0.1611   -2.0582 H   0  0  0  0  0  0  0  0  0  0  0  0
  1  2  1  0
  2  3  1  0
  3  4  2  0
  4  5  1  0
  5  6  1  0
  5  7  1  0
  7  8  1  0
  8  9  1  0
  7  2  1  0
  9  2  1  0
  9  5  1  0
  1 10  1  0
  3 11  1  0
  4 12  1  0
  6 13  1  0
  7 14  1  0
  9 15  1  0
M  END
