
     RDKit          3D

 17 18  0  0  0  0  0  0  0  0999 V2000
    2.1425   -0.0522   -0.5644 O   0  0  0  0  0  0  0  0  0  0  0  0
    0.8547   -0.0092   -0.2620 C   0  0  0  0  0  0  0  0  0  0  0  0
   -0.1582   -0.7941   -1.0339 C   0  0  0  0  0  0  0  0  0  0  0  0
   -1.4142   -0.4465   -0.2071 C   0  0  0  0  0  0  0  0  0  0  0  0
   -0.8188    0.5604    0.7161 C   0  0  0  0  0  0  0  0  0  0  0  0
    0.4360   -0.1720    1.2037 C   0  0  0  0  0  0  0  0  0  0  0  0
    0.1567    1.3446   -0.1709 C   0  0  0  0  0  0  0  0  0  0  0  0
    2.5789   -0.8449   -0.1290 H   0  0  0  0  0  0  0  0  0  0  0  0
   -0.2917   -0.3069   -2.0145 H   0  0  0  0  0  0  0  0  0  0  0  0
    0.0147   -1.8619   -1.0868 H   0  0  0  0  0  0  0  0  0  0  0  0
   -2.2287   -0.0936   -0.8339 H   0  0  0  0  0  0  0  0  0  0  0  0
   -1.6430   -1.3776    0.3627 H   0  0  0  0  0  0  0  0  0  0  0  0
   -1.3946    1.0920    1.4191 H   0  0  0  0  0  0  0  0  0  0  0  0
    1.0643    0.4331    1.8762 H   0  0  0  0  0  0  0  0  0  0  0  0
    0.2340   -1.2046    1.5108 H   0  0  0  0  0  0  0  0  0  0  0  0
   -0.2597    1.6301   -1.1526 H   0  0  0  0  0  0  0  0  0  0  0  0
    0.7270    2.1034    0.3663 H   0  0  0  0  0  0  0  0  0  0  0  0
  1  2  1  0
  2  3  1  0
  3  4  1  0
  4  5  1  0
  5  6  1  0
  5  7  1  0
  6  2  1  0
  7  2  1  0
  1  8  1  0
  3  9  1  0
  3 10  1  0
  4 11  1  0
  4 12  1  0
  5 13  1  0
  6 14  1  0
  6 15  1  0
  7 16  1  0
  7 17  1  0
M  END
