
     RDKit          3D

 19 20  0  0  0  0  0  0  0  0999 V2000
   -0.1661   -2.4411   -0.7931 O   0  0  0  0  0  0  0  0  0  0  0  0
   -0.1989   -1.1839   -0.2884 C   0  0  0  0  0  0  0  0  0  0  0  0
   -1.5417   -0.6675    0.1399 C   0  0  0  0  0  0  0  0  0  0  0  0
   -1.6325    0.6623    0.2616 C   0  0  0  0  0  0  0  0  0  0  0  0
   -0.3686    1.3632    0.6794 C   0  0  0  0  0  0  0  0  0  0  0  0
    0.8002    0.6061    0.1279 C   0  0  0  0  0  0  0  0  0  0  0  0
    2.0109    1.2313    0.1028 O   0  0  0  0  0  0  0  0  0  0  0  0
    0.3847   -0.0828   -1.1777 C   0  0  0  0  0  0  0  0  0  0  0  0
    0.8164   -0.8003    0.7413 C   0  0  0  0  0  0  0  0  0  0  0  0
    0.4391   -2.4794   -1.5673 H   0  0  0  0  0  0  0  0  0  0  0  0
   -2.3822   -1.3309    0.3373 H   0  0  0  0  0  0  0  0  0  0  0  0
   -2.5500    1.2120    0.0748 H   0  0  0  0  0  0  0  0  0  0  0  0
   -0.3673    2.3997    0.3156 H   0  0  0  0  0  0  0  0  0  0  0  0
   -0.2872    1.3166    1.8046 H   0  0  0  0  0  0  0  0  0  0  0  0
    1.9994    2.1901    0.3082 H   0  0  0  0  0  0  0  0  0  0  0  0
    1.2135   -0.3883   -1.8125 H   0  0  0  0  0  0  0  0  0  0  0  0
   -0.4197    0.4747   -1.7224 H   0  0  0  0  0  0  0  0  0  0  0  0
    1.7893   -1.2967    0.6798 H   0  0  0  0  0  0  0  0  0  0  0  0
    0.4610   -0.7850    1.7882 H   0  0  0  0  0  0  0  0  0  0  0  0
  1  2  1  0
  2  3  1  0
  3  4  2  0
  4  5  1  0
  5  6  1  0
  6  7  1  0
  6  8  1  0
  6  9  1  0
  8  2  1  0
  9  2  1  0
  1 10  1  0
  3 11  1  0
  4 12  1  0
  5 13  1  0
  5 14  1  0
  7 15  1  0
  8 16  1  0
  8 17  1  0
  9 18  1  0
  9 19  1  0
M  END
