
     RDKit          3D

 16 18  0  0  0  0  0  0  0  0999 V2000
    0.5683   -1.4374   -1.1373 O   0  0  0  0  0  0  0  0  0  0  0  0
    0.4620   -0.4992   -0.3188 C   0  0  0  0  0  0  0  0  0  0  0  0
    1.5289    0.4690    0.1320 C   0  0  0  0  0  0  0  0  0  0  0  0
    0.3198    0.8869    0.9150 C   0  0  0  0  0  0  0  0  0  0  0  0
   -0.4616    0.6802   -0.3488 C   0  0  0  0  0  0  0  0  0  0  0  0
   -1.7510    0.1240    0.1274 C   0  0  0  0  0  0  0  0  0  0  0  0
   -1.3121   -0.7147    1.1833 O   0  0  0  0  0  0  0  0  0  0  0  0
    0.0535   -0.5735    1.1319 C   0  0  0  0  0  0  0  0  0  0  0  0
    0.4847   -2.3690   -0.7586 H   0  0  0  0  0  0  0  0  0  0  0  0
    2.3402   -0.0210    0.6906 H   0  0  0  0  0  0  0  0  0  0  0  0
    1.8844    1.1819   -0.6381 H   0  0  0  0  0  0  0  0  0  0  0  0
    0.2373    1.6322    1.5745 H   0  0  0  0  0  0  0  0  0  0  0  0
   -0.4078    1.3880   -1.1353 H   0  0  0  0  0  0  0  0  0  0  0  0
   -2.4508    0.8902    0.4760 H   0  0  0  0  0  0  0  0  0  0  0  0
   -2.1722   -0.5149   -0.6980 H   0  0  0  0  0  0  0  0  0  0  0  0
    0.6764   -1.1228    1.8101 H   0  0  0  0  0  0  0  0  0  0  0  0
  1  2  1  0
  2  3  1  0
  3  4  1  0
  4  5  1  0
  5  6  1  0
  6  7  1  0
  7  8  1  0
  5  2  1  0
  8  2  1  0
  8  4  1  0
  1  9  1  0
  3 10  1  0
  3 11  1  0
  4 12  1  0
  5 13  1  0
  6 14  1  0
  6 15  1  0
  8 16  1  0
M  END
