
     RDKit          3D

 16 17  0  0  0  0  0  0  0  0999 V2000
   -1.2006    1.7693   -0.1046 O   0  0  0  0  0  0  0  0  0  0  0  0
   -0.5406    0.6333    0.0687 C   0  0  0  0  0  0  0  0  0  0  0  0
    0.3331    0.5287    1.2846 C   0  0  0  0  0  0  0  0  0  0  0  0
    1.1037   -0.5343    1.0669 C   0  0  0  0  0  0  0  0  0  0  0  0
    0.8877   -1.0236   -0.3115 C   0  0  0  0  0  0  0  0  0  0  0  0
    0.5282    0.3118   -0.9963 C   0  0  0  0  0  0  0  0  0  0  0  0
   -0.3597   -1.6415   -0.3357 O   0  0  0  0  0  0  0  0  0  0  0  0
   -1.3056   -0.6611   -0.0118 C   0  0  0  0  0  0  0  0  0  0  0  0
   -0.8419    2.2946   -0.8634 H   0  0  0  0  0  0  0  0  0  0  0  0
    0.3469    1.1599    2.1447 H   0  0  0  0  0  0  0  0  0  0  0  0
    1.7751   -0.9600    1.7925 H   0  0  0  0  0  0  0  0  0  0  0  0
    1.6765   -1.5532   -0.7790 H   0  0  0  0  0  0  0  0  0  0  0  0
    1.3682    1.0036   -0.9497 H   0  0  0  0  0  0  0  0  0  0  0  0
    0.0855    0.1522   -1.9776 H   0  0  0  0  0  0  0  0  0  0  0  0
   -1.8795   -0.8974    0.8898 H   0  0  0  0  0  0  0  0  0  0  0  0
   -1.9767   -0.5823   -0.9174 H   0  0  0  0  0  0  0  0  0  0  0  0
  1  2  1  0
  2  3  1  0
  3  4  2  0
  4  5  1  0
  5  6  1  0
  5  7  1  0
  7  8  1  0
  6  2  1  0
  8  2  1  0
  1  9  1  0
  3 10  1  0
  4 11  1  0
  5 12  1  0
  6 13  1  0
  6 14  1  0
  8 15  1  0
  8 16  1  0
M  END
