
     RDKit          3D

 19 21  0  0  0  0  0  0  0  0999 V2000
   -0.9181   -1.4684   -1.3006 O   0  0  0  0  0  0  0  0  0  0  0  0
   -0.6293   -0.6500   -0.2301 C   0  0  0  0  0  0  0  0  0  0  0  0
   -1.3273   -0.7668    1.0701 C   0  0  0  0  0  0  0  0  0  0  0  0
   -1.7730    0.3019    0.1694 C   0  0  0  0  0  0  0  0  0  0  0  0
   -1.1424    1.6087    0.0173 C   0  0  0  0  0  0  0  0  0  0  0  0
    0.1487    1.5705   -0.2136 C   0  0  0  0  0  0  0  0  0  0  0  0
    0.5914    0.1847   -0.2512 C   0  0  0  0  0  0  0  0  0  0  0  0
    1.8526   -0.2469   -0.8662 C   0  0  0  0  0  0  0  0  0  0  0  0
    1.7611   -0.1235    0.6233 C   0  0  0  0  0  0  0  0  0  0  0  0
   -0.5003   -2.3553   -1.2474 H   0  0  0  0  0  0  0  0  0  0  0  0
   -0.7108   -0.5490    1.9827 H   0  0  0  0  0  0  0  0  0  0  0  0
   -2.0691   -1.5679    1.2726 H   0  0  0  0  0  0  0  0  0  0  0  0
   -2.7366    0.1755   -0.3700 H   0  0  0  0  0  0  0  0  0  0  0  0
   -1.7209    2.5497    0.0932 H   0  0  0  0  0  0  0  0  0  0  0  0
    0.8075    2.4647   -0.3591 H   0  0  0  0  0  0  0  0  0  0  0  0
    1.9144   -1.3133   -1.2148 H   0  0  0  0  0  0  0  0  0  0  0  0
    2.4260    0.4545   -1.4676 H   0  0  0  0  0  0  0  0  0  0  0  0
    2.3724    0.7315    1.0322 H   0  0  0  0  0  0  0  0  0  0  0  0
    1.6535   -1.0004    1.2600 H   0  0  0  0  0  0  0  0  0  0  0  0
  1  2  1  0
  2  3  1  0
  3  4  1  0
  4  5  1  0
  5  6  2  0
  6  7  1  0
  7  8  1  0
  8  9  1  0
  4  2  1  0
  9  7  1  0
  7  2  1  0
  1 10  1  0
  3 11  1  0
  3 12  1  0
  4 13  1  0
  5 14  1  0
  6 15  1  0
  8 16  1  0
  8 17  1  0
  9 18  1  0
  9 19  1  0
M  END
