
     RDKit          3D

 18 19  0  0  0  0  0  0  0  0999 V2000
   -0.6900    2.2015   -0.1694 O   0  0  0  0  0  0  0  0  0  0  0  0
   -0.2853    0.9326   -0.1860 C   0  0  0  0  0  0  0  0  0  0  0  0
   -1.1355   -0.0015   -1.0139 C   0  0  0  0  0  0  0  0  0  0  0  0
   -1.0167   -1.2320   -0.5303 C   0  0  0  0  0  0  0  0  0  0  0  0
   -0.0309   -1.1672    0.5610 C   0  0  0  0  0  0  0  0  0  0  0  0
    1.2945   -0.8028   -0.0594 C   0  0  0  0  0  0  0  0  0  0  0  0
    1.1477    0.6576   -0.4929 C   0  0  0  0  0  0  0  0  0  0  0  0
   -0.4029    0.2027    1.1651 C   0  0  0  0  0  0  0  0  0  0  0  0
   -1.2293    2.5164    0.5739 H   0  0  0  0  0  0  0  0  0  0  0  0
   -1.7268    0.3284   -1.8545 H   0  0  0  0  0  0  0  0  0  0  0  0
   -1.5319   -2.1185   -0.8581 H   0  0  0  0  0  0  0  0  0  0  0  0
   -0.0245   -1.9630    1.2690 H   0  0  0  0  0  0  0  0  0  0  0  0
    2.1549   -0.9679    0.5837 H   0  0  0  0  0  0  0  0  0  0  0  0
    1.4476   -1.3824   -1.0017 H   0  0  0  0  0  0  0  0  0  0  0  0
    1.3509    0.8059   -1.5516 H   0  0  0  0  0  0  0  0  0  0  0  0
    1.7676    1.2993    0.1706 H   0  0  0  0  0  0  0  0  0  0  0  0
    0.3392    0.5463    1.8822 H   0  0  0  0  0  0  0  0  0  0  0  0
   -1.4286    0.1446    1.5121 H   0  0  0  0  0  0  0  0  0  0  0  0
  1  2  1  0
  2  3  1  0
  3  4  2  0
  4  5  1  0
  5  6  1  0
  6  7  1  0
  5  8  1  0
  7  2  1  0
  8  2  1  0
  1  9  1  0
  3 10  1  0
  4 11  1  0
  5 12  1  0
  6 13  1  0
  6 14  1  0
  7 15  1  0
  7 16  1  0
  8 17  1  0
  8 18  1  0
M  END
