
     RDKit          3D

 17 20  0  0  0  0  0  0  0  0999 V2000
    2.4828   -0.6322    0.1675 O   0  0  0  0  0  0  0  0  0  0  0  0
    1.1888   -0.3339    0.1405 C   0  0  0  0  0  0  0  0  0  0  0  0
    0.6139    1.0496    0.0379 C   0  0  0  0  0  0  0  0  0  0  0  0
    0.1021    0.9869   -1.2813 O   0  0  0  0  0  0  0  0  0  0  0  0
   -0.7353   -0.1371   -1.1432 C   0  0  0  0  0  0  0  0  0  0  0  0
   -1.6367    0.4095   -0.0219 C   0  0  0  0  0  0  0  0  0  0  0  0
   -0.4745    0.6316    0.9614 C   0  0  0  0  0  0  0  0  0  0  0  0
    0.1086   -0.7485    0.9837 C   0  0  0  0  0  0  0  0  0  0  0  0
    0.0957   -1.1575   -0.4260 C   0  0  0  0  0  0  0  0  0  0  0  0
    2.9837   -0.1519   -0.5397 H   0  0  0  0  0  0  0  0  0  0  0  0
    1.2326    1.8907    0.2741 H   0  0  0  0  0  0  0  0  0  0  0  0
   -1.2502   -0.4399   -2.0167 H   0  0  0  0  0  0  0  0  0  0  0  0
   -2.3439   -0.3329    0.3368 H   0  0  0  0  0  0  0  0  0  0  0  0
   -2.0575    1.3548   -0.3690 H   0  0  0  0  0  0  0  0  0  0  0  0
   -0.6801    1.1513    1.8578 H   0  0  0  0  0  0  0  0  0  0  0  0
    0.1018   -1.3895    1.8395 H   0  0  0  0  0  0  0  0  0  0  0  0
    0.2680   -2.1511   -0.8014 H   0  0  0  0  0  0  0  0  0  0  0  0
  1  2  1  0
  2  3  1  0
  3  4  1  0
  4  5  1  0
  5  6  1  0
  6  7  1  0
  7  8  1  0
  8  9  1  0
  8  2  1  0
  9  2  1  0
  7  3  1  0
  9  5  1  0
  1 10  1  0
  3 11  1  0
  5 12  1  0
  6 13  1  0
  6 14  1  0
  7 15  1  0
  8 16  1  0
  9 17  1  0
M  END
