
     RDKit          2D

 16 18  0  0  0  0  0  0  0  0999 V2000
    1.9267    1.0607    0.0000 O   0  0  0  0  0  0  0  0  0  0  0  0
    0.8660    0.0000    0.0000 C   0  0  0  0  0  0  0  0  0  0  0  0
    1.6160   -1.2990    0.0000 C   0  0  0  0  0  0  0  0  0  0  0  0
    0.3170   -2.0490    0.0000 C   0  0  0  0  0  0  0  0  0  0  0  0
   -1.1810   -1.9705    0.0000 C   0  0  0  0  0  0  0  0  0  0  0  0
   -1.5692   -0.5216    0.0000 C   0  0  0  0  0  0  0  0  0  0  0  0
   -0.4330    0.7500    0.0000 C   0  0  0  0  0  0  0  0  0  0  0  0
   -0.4330   -0.7500    0.0000 C   0  0  0  0  0  0  0  0  0  0  0  0
    3.3756    0.6724    0.0000 H   0  0  0  0  0  0  0  0  0  0  0  0
    2.3660   -2.5981    0.0000 H   0  0  0  0  0  0  0  0  0  0  0  0
    2.9151   -0.5490    0.0000 H   0  0  0  0  0  0  0  0  0  0  0  0
   -2.1249   -3.1363    0.0000 H   0  0  0  0  0  0  0  0  0  0  0  0
   -2.9696   -1.0592    0.0000 H   0  0  0  0  0  0  0  0  0  0  0  0
   -2.2502    0.8149    0.0000 H   0  0  0  0  0  0  0  0  0  0  0  0
   -1.1830    2.0490    0.0000 H   0  0  0  0  0  0  0  0  0  0  0  0
   -1.1302   -1.1365    0.0000 H   0  0  0  0  0  0  0  0  0  0  0  0
  1  2  1  0
  2  3  1  0
  3  4  1  0
  4  5  2  0
  5  6  1  0
  6  7  1  0
  7  8  1  0
  7  2  1  0
  8  2  1  0
  8  4  1  0
  1  9  1  0
  3 10  1  0
  3 11  1  0
  5 12  1  0
  6 13  1  0
  6 14  1  0
  7 15  1  0
  8 16  1  0
M  END
