
     RDKit          3D

 19 21  0  0  0  0  0  0  0  0999 V2000
    2.3862   -0.4321    0.0549 O   0  0  0  0  0  0  0  0  0  0  0  0
    1.0578   -0.1902    0.1153 C   0  0  0  0  0  0  0  0  0  0  0  0
    0.5768    1.0684    0.7555 C   0  0  0  0  0  0  0  0  0  0  0  0
   -0.6672    1.4948   -0.0400 C   0  0  0  0  0  0  0  0  0  0  0  0
   -1.0612    0.2064   -0.6797 C   0  0  0  0  0  0  0  0  0  0  0  0
   -1.2379   -0.8088    0.4664 C   0  0  0  0  0  0  0  0  0  0  0  0
    0.1631   -1.3706    0.4167 C   0  0  0  0  0  0  0  0  0  0  0  0
    0.2732   -1.6889   -0.9511 O   0  0  0  0  0  0  0  0  0  0  0  0
    0.2676   -0.3216   -1.1756 C   0  0  0  0  0  0  0  0  0  0  0  0
    2.6226   -0.9663   -0.7333 H   0  0  0  0  0  0  0  0  0  0  0  0
    0.2580    0.7977    1.8056 H   0  0  0  0  0  0  0  0  0  0  0  0
    1.3333    1.8634    0.7840 H   0  0  0  0  0  0  0  0  0  0  0  0
   -1.4520    1.7723    0.6896 H   0  0  0  0  0  0  0  0  0  0  0  0
   -0.3975    2.2985   -0.7229 H   0  0  0  0  0  0  0  0  0  0  0  0
   -1.8589    0.2153   -1.3826 H   0  0  0  0  0  0  0  0  0  0  0  0
   -1.4942   -0.3247    1.4058 H   0  0  0  0  0  0  0  0  0  0  0  0
   -1.9225   -1.5963    0.1299 H   0  0  0  0  0  0  0  0  0  0  0  0
    0.4696   -2.0926    1.1306 H   0  0  0  0  0  0  0  0  0  0  0  0
    0.6832    0.0751   -2.0692 H   0  0  0  0  0  0  0  0  0  0  0  0
  1  2  1  0
  2  3  1  0
  3  4  1  0
  4  5  1  0
  5  6  1  0
  6  7  1  0
  7  8  1  0
  8  9  1  0
  7  2  1  0
  9  2  1  0
  9  5  1  0
  1 10  1  0
  3 11  1  0
  3 12  1  0
  4 13  1  0
  4 14  1  0
  5 15  1  0
  6 16  1  0
  6 17  1  0
  7 18  1  0
  9 19  1  0
M  END
