
     RDKit          3D

 17 19  0  0  0  0  0  0  0  0999 V2000
   -1.8514    0.8692    0.8480 O   0  0  0  0  0  0  0  0  0  0  0  0
   -0.9266    0.2115    0.3127 C   0  0  0  0  0  0  0  0  0  0  0  0
   -0.9718   -1.1961   -0.2189 C   0  0  0  0  0  0  0  0  0  0  0  0
    0.4409   -0.7500   -0.5115 C   0  0  0  0  0  0  0  0  0  0  0  0
    1.3593   -1.4098   -1.0472 O   0  0  0  0  0  0  0  0  0  0  0  0
   -0.1609    0.5509   -0.9377 C   0  0  0  0  0  0  0  0  0  0  0  0
    0.7887    1.5705   -0.4759 C   0  0  0  0  0  0  0  0  0  0  0  0
    1.2145    1.0810    0.7140 C   0  0  0  0  0  0  0  0  0  0  0  0
    0.4168   -0.1420    0.8673 C   0  0  0  0  0  0  0  0  0  0  0  0
   -2.5679    0.3580    1.2719 H   0  0  0  0  0  0  0  0  0  0  0  0
   -1.6190   -1.2537   -1.1078 H   0  0  0  0  0  0  0  0  0  0  0  0
   -1.0669   -2.0017    0.5142 H   0  0  0  0  0  0  0  0  0  0  0  0
    2.0651   -1.7932   -0.4545 H   0  0  0  0  0  0  0  0  0  0  0  0
   -0.6660    0.6422   -1.8625 H   0  0  0  0  0  0  0  0  0  0  0  0
    1.0684    2.4871   -0.9795 H   0  0  0  0  0  0  0  0  0  0  0  0
    1.9676    1.5371    1.3469 H   0  0  0  0  0  0  0  0  0  0  0  0
    0.5093   -0.7609    1.7206 H   0  0  0  0  0  0  0  0  0  0  0  0
  1  2  1  0
  2  3  1  0
  3  4  1  0
  4  5  1  0
  4  6  1  0
  6  7  1  0
  7  8  2  0
  8  9  1  0
  6  2  1  0
  9  2  1  0
  9  4  1  0
  1 10  1  0
  3 11  1  0
  3 12  1  0
  5 13  1  0
  6 14  1  0
  7 15  1  0
  8 16  1  0
  9 17  1  0
M  END
