
     RDKit          3D

 18 20  0  0  0  0  0  0  0  0999 V2000
    1.1228   -1.5619   -0.9619 O   0  0  0  0  0  0  0  0  0  0  0  0
    0.8110   -0.3054   -0.5107 C   0  0  0  0  0  0  0  0  0  0  0  0
    1.8635    0.7121   -0.2126 C   0  0  0  0  0  0  0  0  0  0  0  0
    1.3047   -0.0183    0.9364 C   0  0  0  0  0  0  0  0  0  0  0  0
   -0.1334    0.0912    1.3422 C   0  0  0  0  0  0  0  0  0  0  0  0
   -0.5621    0.0524   -0.0649 C   0  0  0  0  0  0  0  0  0  0  0  0
   -1.4441    0.9869   -0.7262 C   0  0  0  0  0  0  0  0  0  0  0  0
   -1.7897   -0.4838   -0.5888 C   0  0  0  0  0  0  0  0  0  0  0  0
    0.9144   -2.2651   -0.2709 H   0  0  0  0  0  0  0  0  0  0  0  0
    1.5269    1.7691   -0.3584 H   0  0  0  0  0  0  0  0  0  0  0  0
    2.8734    0.4458   -0.5273 H   0  0  0  0  0  0  0  0  0  0  0  0
    1.9275   -0.7888    1.4125 H   0  0  0  0  0  0  0  0  0  0  0  0
   -0.4105    1.0188    1.8972 H   0  0  0  0  0  0  0  0  0  0  0  0
   -0.4500   -0.8464    1.8872 H   0  0  0  0  0  0  0  0  0  0  0  0
   -2.0163    1.7256   -0.1107 H   0  0  0  0  0  0  0  0  0  0  0  0
   -1.2228    1.3782   -1.7516 H   0  0  0  0  0  0  0  0  0  0  0  0
   -2.5785   -0.7955    0.1180 H   0  0  0  0  0  0  0  0  0  0  0  0
   -1.7368   -1.1149   -1.5094 H   0  0  0  0  0  0  0  0  0  0  0  0
  1  2  1  0
  2  3  1  0
  3  4  1  0
  4  5  1  0
  5  6  1  0
  6  7  1  0
  7  8  1  0
  4  2  1  0
  8  6  1  0
  6  2  1  0
  1  9  1  0
  3 10  1  0
  3 11  1  0
  4 12  1  0
  5 13  1  0
  5 14  1  0
  7 15  1  0
  7 16  1  0
  8 17  1  0
  8 18  1  0
M  END
