
     RDKit          3D

 17 21  0  0  0  0  0  0  0  0999 V2000
    2.3111    0.0105   -0.5810 O   0  0  0  0  0  0  0  0  0  0  0  0
    1.0438    0.0105   -0.2632 C   0  0  0  0  0  0  0  0  0  0  0  0
    0.0071    0.7805   -0.9929 C   0  0  0  0  0  0  0  0  0  0  0  0
   -0.5873    1.1819    0.2812 C   0  0  0  0  0  0  0  0  0  0  0  0
   -1.4451   -0.0106    0.2708 C   0  0  0  0  0  0  0  0  0  0  0  0
   -0.8441   -0.4179   -1.0202 C   0  0  0  0  0  0  0  0  0  0  0  0
    0.1729   -1.1812   -0.3005 C   0  0  0  0  0  0  0  0  0  0  0  0
   -0.4205   -0.7725    0.9857 C   0  0  0  0  0  0  0  0  0  0  0  0
    0.4572    0.4148    1.0039 C   0  0  0  0  0  0  0  0  0  0  0  0
    2.9761   -0.0095    0.1352 H   0  0  0  0  0  0  0  0  0  0  0  0
    0.2025    1.4012   -1.8045 H   0  0  0  0  0  0  0  0  0  0  0  0
   -0.8910    2.1434    0.5434 H   0  0  0  0  0  0  0  0  0  0  0  0
   -2.4676   -0.0213    0.4708 H   0  0  0  0  0  0  0  0  0  0  0  0
   -1.3919   -0.7472   -1.8428 H   0  0  0  0  0  0  0  0  0  0  0  0
    0.4959   -2.1450   -0.5288 H   0  0  0  0  0  0  0  0  0  0  0  0
   -0.5808   -1.4047    1.7980 H   0  0  0  0  0  0  0  0  0  0  0  0
    0.9617    0.7671    1.8450 H   0  0  0  0  0  0  0  0  0  0  0  0
  1  2  1  0
  2  3  1  0
  3  4  1  0
  4  5  1  0
  5  6  1  0
  6  7  1  0
  7  8  1  0
  8  9  1  0
  7  2  1  0
  9  2  1  0
  6  3  1  0
  9  4  1  0
  8  5  1  0
  1 10  1  0
  3 11  1  0
  4 12  1  0
  5 13  1  0
  6 14  1  0
  7 15  1  0
  8 16  1  0
  9 17  1  0
M  END
