
     RDKit          3D

 19 21  0  0  0  0  0  0  0  0999 V2000
   -0.1384   -1.8085   -0.7329 O   0  0  0  0  0  0  0  0  0  0  0  0
   -0.5636   -0.7514   -0.2140 C   0  0  0  0  0  0  0  0  0  0  0  0
   -1.0849    0.4763   -0.8441 C   0  0  0  0  0  0  0  0  0  0  0  0
   -1.2231    0.7614    0.6259 C   0  0  0  0  0  0  0  0  0  0  0  0
   -1.7842   -0.6369    0.7022 C   0  0  0  0  0  0  0  0  0  0  0  0
    0.0964    0.1248    0.8047 C   0  0  0  0  0  0  0  0  0  0  0  0
    1.3363    0.8511    0.4384 C   0  0  0  0  0  0  0  0  0  0  0  0
    2.5687    0.2304    0.0405 C   0  0  0  0  0  0  0  0  0  0  0  0
    1.7906    0.8220   -0.9280 O   0  0  0  0  0  0  0  0  0  0  0  0
   -0.3225   -2.6379   -0.2488 H   0  0  0  0  0  0  0  0  0  0  0  0
   -2.0500    0.3925   -1.3930 H   0  0  0  0  0  0  0  0  0  0  0  0
   -0.4261    1.1423   -1.3947 H   0  0  0  0  0  0  0  0  0  0  0  0
   -1.6095    1.5818    1.0479 H   0  0  0  0  0  0  0  0  0  0  0  0
   -1.6971   -1.1555    1.6540 H   0  0  0  0  0  0  0  0  0  0  0  0
   -2.7487   -0.7116    0.2082 H   0  0  0  0  0  0  0  0  0  0  0  0
    0.2328   -0.4563    1.7619 H   0  0  0  0  0  0  0  0  0  0  0  0
    1.4017    1.8870    0.8841 H   0  0  0  0  0  0  0  0  0  0  0  0
    2.6898   -0.8630   -0.0689 H   0  0  0  0  0  0  0  0  0  0  0  0
    3.5317    0.7514    0.2867 H   0  0  0  0  0  0  0  0  0  0  0  0
  1  2  1  0
  2  3  1  0
  3  4  1  0
  4  5  1  0
  4  6  1  0
  6  7  1  0
  7  8  1  0
  8  9  1  0
  5  2  1  0
  9  7  1  0
  6  2  1  0
  1 10  1  0
  3 11  1  0
  3 12  1  0
  4 13  1  0
  5 14  1  0
  5 15  1  0
  6 16  1  0
  7 17  1  0
  8 18  1  0
  8 19  1  0
M  END
