
     RDKit          3D

 19 21  0  0  0  0  0  0  0  0999 V2000
   -1.7689    1.2053   -1.2249 O   0  0  0  0  0  0  0  0  0  0  0  0
   -0.8837    0.5869   -0.3331 C   0  0  0  0  0  0  0  0  0  0  0  0
    0.2728    1.3992    0.0630 C   0  0  0  0  0  0  0  0  0  0  0  0
    1.5274    0.7061    0.3891 C   0  0  0  0  0  0  0  0  0  0  0  0
    2.1918    0.2359   -0.8585 O   0  0  0  0  0  0  0  0  0  0  0  0
    1.6513   -0.6381    0.2050 C   0  0  0  0  0  0  0  0  0  0  0  0
    0.5310   -1.4920   -0.2382 C   0  0  0  0  0  0  0  0  0  0  0  0
   -0.7935   -0.8483   -0.3542 C   0  0  0  0  0  0  0  0  0  0  0  0
   -1.4836   -0.2306    0.8045 C   0  0  0  0  0  0  0  0  0  0  0  0
   -2.6916    0.9179   -1.1156 H   0  0  0  0  0  0  0  0  0  0  0  0
    0.4988    2.1813   -0.7211 H   0  0  0  0  0  0  0  0  0  0  0  0
   -0.0299    2.0159    0.9606 H   0  0  0  0  0  0  0  0  0  0  0  0
    2.2308    1.2818    1.0419 H   0  0  0  0  0  0  0  0  0  0  0  0
    2.5383   -1.2158    0.5983 H   0  0  0  0  0  0  0  0  0  0  0  0
    0.8076   -1.9168   -1.2461 H   0  0  0  0  0  0  0  0  0  0  0  0
    0.4969   -2.4037    0.4263 H   0  0  0  0  0  0  0  0  0  0  0  0
   -1.5043   -1.3959   -1.0394 H   0  0  0  0  0  0  0  0  0  0  0  0
   -2.5831   -0.1843    0.8447 H   0  0  0  0  0  0  0  0  0  0  0  0
   -1.0081   -0.2049    1.7978 H   0  0  0  0  0  0  0  0  0  0  0  0
  1  2  1  0
  2  3  1  0
  3  4  1  0
  4  5  1  0
  5  6  1  0
  6  7  1  0
  7  8  1  0
  8  9  1  0
  8  2  1  0
  9  2  1  0
  6  4  1  0
  1 10  1  0
  3 11  1  0
  3 12  1  0
  4 13  1  0
  6 14  1  0
  7 15  1  0
  7 16  1  0
  8 17  1  0
  9 18  1  0
  9 19  1  0
M  END
