
     RDKit          3D

 17 19  0  0  0  0  0  0  0  0999 V2000
   -0.9155   -1.8373   -0.2487 O   0  0  0  0  0  0  0  0  0  0  0  0
   -0.2683   -0.6298   -0.1649 C   0  0  0  0  0  0  0  0  0  0  0  0
    1.2167   -0.6629   -0.4853 C   0  0  0  0  0  0  0  0  0  0  0  0
    1.6173    0.6813    0.1377 C   0  0  0  0  0  0  0  0  0  0  0  0
    0.9105    0.7431    1.3073 O   0  0  0  0  0  0  0  0  0  0  0  0
   -0.2561    0.0389    1.1777 C   0  0  0  0  0  0  0  0  0  0  0  0
   -1.3644    0.9319    0.6740 C   0  0  0  0  0  0  0  0  0  0  0  0
   -0.9933    1.7734   -0.3270 O   0  0  0  0  0  0  0  0  0  0  0  0
   -1.0471    0.4784   -0.7609 C   0  0  0  0  0  0  0  0  0  0  0  0
   -1.2252   -1.9748   -1.1981 H   0  0  0  0  0  0  0  0  0  0  0  0
    1.4339   -0.7057   -1.5486 H   0  0  0  0  0  0  0  0  0  0  0  0
    1.6788   -1.4444    0.1318 H   0  0  0  0  0  0  0  0  0  0  0  0
    1.3043    1.4530   -0.6153 H   0  0  0  0  0  0  0  0  0  0  0  0
    2.7150    0.7257    0.3047 H   0  0  0  0  0  0  0  0  0  0  0  0
   -0.5131   -0.6316    1.9989 H   0  0  0  0  0  0  0  0  0  0  0  0
   -2.3837    0.8149    1.0332 H   0  0  0  0  0  0  0  0  0  0  0  0
   -1.9099    0.2458   -1.4165 H   0  0  0  0  0  0  0  0  0  0  0  0
  1  2  1  0
  2  3  1  0
  3  4  1  0
  4  5  1  0
  5  6  1  0
  6  7  1  0
  7  8  1  0
  8  9  1  0
  6  2  1  0
  9  7  1  0
  9  2  1  0
  1 10  1  0
  3 11  1  0
  3 12  1  0
  4 13  1  0
  4 14  1  0
  6 15  1  0
  7 16  1  0
  9 17  1  0
M  END
