
     RDKit          3D

 18 19  0  0  0  0  0  0  0  0999 V2000
    2.2945    0.1040    0.3793 O   0  0  0  0  0  0  0  0  0  0  0  0
    0.9503   -0.0258    0.2169 C   0  0  0  0  0  0  0  0  0  0  0  0
    0.2902   -1.2416    0.7741 C   0  0  0  0  0  0  0  0  0  0  0  0
   -0.9504   -1.4806    0.2742 O   0  0  0  0  0  0  0  0  0  0  0  0
   -1.6571   -0.4011   -0.1596 C   0  0  0  0  0  0  0  0  0  0  0  0
   -0.8169    0.8143   -0.4569 C   0  0  0  0  0  0  0  0  0  0  0  0
    0.1075    1.1687    0.6873 C   0  0  0  0  0  0  0  0  0  0  0  0
    0.4297    0.3082   -1.1886 C   0  0  0  0  0  0  0  0  0  0  0  0
    2.7395   -0.5213   -0.2765 H   0  0  0  0  0  0  0  0  0  0  0  0
    0.9710   -2.1174    0.6665 H   0  0  0  0  0  0  0  0  0  0  0  0
    0.1907   -1.0935    1.8893 H   0  0  0  0  0  0  0  0  0  0  0  0
   -2.1357   -0.6876   -1.1431 H   0  0  0  0  0  0  0  0  0  0  0  0
   -2.5296   -0.1565    0.5007 H   0  0  0  0  0  0  0  0  0  0  0  0
   -1.3523    1.6189   -0.9331 H   0  0  0  0  0  0  0  0  0  0  0  0
    0.5795    2.1403    0.5270 H   0  0  0  0  0  0  0  0  0  0  0  0
   -0.3793    1.0127    1.6577 H   0  0  0  0  0  0  0  0  0  0  0  0
    0.2729   -0.5833   -1.7929 H   0  0  0  0  0  0  0  0  0  0  0  0
    0.9955    1.1417   -1.6223 H   0  0  0  0  0  0  0  0  0  0  0  0
  1  2  1  0
  2  3  1  0
  3  4  1  0
  4  5  1  0
  5  6  1  0
  6  7  1  0
  6  8  1  0
  7  2  1  0
  8  2  1  0
  1  9  1  0
  3 10  1  0
  3 11  1  0
  5 12  1  0
  5 13  1  0
  6 14  1  0
  7 15  1  0
  7 16  1  0
  8 17  1  0
  8 18  1  0
M  END
