
     RDKit          3D

 21 23  0  0  0  0  0  0  0  0999 V2000
    2.9244    0.5992   -1.0463 O   0  0  0  0  0  0  0  0  0  0  0  0
    1.7972    0.3202   -0.5947 C   0  0  0  0  0  0  0  0  0  0  0  0
    0.9228    1.1202    0.3368 C   0  0  0  0  0  0  0  0  0  0  0  0
    0.0976   -0.1139    0.0370 C   0  0  0  0  0  0  0  0  0  0  0  0
   -1.1359   -0.4368    0.5330 C   0  0  0  0  0  0  0  0  0  0  0  0
   -2.3042    0.5372    0.2535 C   0  0  0  0  0  0  0  0  0  0  0  0
   -2.2819   -0.7724   -0.4034 C   0  0  0  0  0  0  0  0  0  0  0  0
    0.5208    0.0634   -1.3835 C   0  0  0  0  0  0  0  0  0  0  0  0
    1.3812   -0.8808    0.2242 C   0  0  0  0  0  0  0  0  0  0  0  0
    3.7087    0.1356   -0.6645 H   0  0  0  0  0  0  0  0  0  0  0  0
    0.5385    2.0658   -0.0458 H   0  0  0  0  0  0  0  0  0  0  0  0
    1.3444    1.1290    1.3546 H   0  0  0  0  0  0  0  0  0  0  0  0
   -1.2280   -1.0131    1.5024 H   0  0  0  0  0  0  0  0  0  0  0  0
   -2.0550    1.4574   -0.3230 H   0  0  0  0  0  0  0  0  0  0  0  0
   -2.9370    0.7568    1.1343 H   0  0  0  0  0  0  0  0  0  0  0  0
   -2.0733   -0.7655   -1.5000 H   0  0  0  0  0  0  0  0  0  0  0  0
   -3.0358   -1.5252   -0.1173 H   0  0  0  0  0  0  0  0  0  0  0  0
    0.1451    0.9337   -1.9237 H   0  0  0  0  0  0  0  0  0  0  0  0
    0.5435   -0.8984   -1.9246 H   0  0  0  0  0  0  0  0  0  0  0  0
    1.6797   -0.8692    1.2775 H   0  0  0  0  0  0  0  0  0  0  0  0
    1.4472   -1.8433   -0.3096 H   0  0  0  0  0  0  0  0  0  0  0  0
  1  2  1  0
  2  3  1  0
  3  4  1  0
  4  5  1  0
  5  6  1  0
  6  7  1  0
  4  8  1  0
  4  9  1  0
  8  2  1  0
  9  2  1  0
  7  5  1  0
  1 10  1  0
  3 11  1  0
  3 12  1  0
  5 13  1  0
  6 14  1  0
  6 15  1  0
  7 16  1  0
  7 17  1  0
  8 18  1  0
  8 19  1  0
  9 20  1  0
  9 21  1  0
M  END
