
     RDKit          3D

 19 21  0  0  0  0  0  0  0  0999 V2000
   -1.7531    0.8249    1.4352 O   0  0  0  0  0  0  0  0  0  0  0  0
   -0.7941    0.3873    0.5710 C   0  0  0  0  0  0  0  0  0  0  0  0
    0.0072   -0.8472    0.8158 C   0  0  0  0  0  0  0  0  0  0  0  0
    1.4398   -0.5872    0.4709 C   0  0  0  0  0  0  0  0  0  0  0  0
    1.7183    0.7932    0.3822 O   0  0  0  0  0  0  0  0  0  0  0  0
    1.1177    1.2004   -0.8236 C   0  0  0  0  0  0  0  0  0  0  0  0
   -0.3656    1.1212   -0.6241 C   0  0  0  0  0  0  0  0  0  0  0  0
   -1.1371   -0.1099   -0.7983 C   0  0  0  0  0  0  0  0  0  0  0  0
   -0.7203   -1.4585   -0.3699 C   0  0  0  0  0  0  0  0  0  0  0  0
   -1.2912    1.3730    2.1432 H   0  0  0  0  0  0  0  0  0  0  0  0
   -0.1723   -1.3593    1.7783 H   0  0  0  0  0  0  0  0  0  0  0  0
    2.0871   -0.9973    1.2563 H   0  0  0  0  0  0  0  0  0  0  0  0
    1.7207   -1.0542   -0.5099 H   0  0  0  0  0  0  0  0  0  0  0  0
    1.4617    2.2323   -1.0066 H   0  0  0  0  0  0  0  0  0  0  0  0
    1.4167    0.5664   -1.6720 H   0  0  0  0  0  0  0  0  0  0  0  0
   -0.8979    2.0696   -0.8341 H   0  0  0  0  0  0  0  0  0  0  0  0
   -2.1898   -0.0270   -1.1722 H   0  0  0  0  0  0  0  0  0  0  0  0
   -1.5948   -2.0838   -0.0448 H   0  0  0  0  0  0  0  0  0  0  0  0
   -0.0530   -2.0442   -0.9975 H   0  0  0  0  0  0  0  0  0  0  0  0
  1  2  1  0
  2  3  1  0
  3  4  1  0
  4  5  1  0
  5  6  1  0
  6  7  1  0
  7  8  1  0
  8  9  1  0
  7  2  1  0
  8  2  1  0
  9  3  1  0
  1 10  1  0
  3 11  1  0
  4 12  1  0
  4 13  1  0
  6 14  1  0
  6 15  1  0
  7 16  1  0
  8 17  1  0
  9 18  1  0
  9 19  1  0
M  END
