
     RDKit          3D

 15 18  0  0  0  0  0  0  0  0999 V2000
   -2.3760    0.8552    0.2196 O   0  0  0  0  0  0  0  0  0  0  0  0
   -1.1216    0.5428    0.4051 C   0  0  0  0  0  0  0  0  0  0  0  0
   -0.6955   -0.8478   -0.1806 C   0  0  0  0  0  0  0  0  0  0  0  0
   -0.3991   -0.4280    1.1451 C   0  0  0  0  0  0  0  0  0  0  0  0
    0.8777    0.1683    0.6463 C   0  0  0  0  0  0  0  0  0  0  0  0
    2.0250    0.2888    1.2374 O   0  0  0  0  0  0  0  0  0  0  0  0
    0.1049    1.0831   -0.1925 C   0  0  0  0  0  0  0  0  0  0  0  0
    0.4954   -0.1794   -0.7145 C   0  0  0  0  0  0  0  0  0  0  0  0
    1.2607   -0.5252   -1.7348 O   0  0  0  0  0  0  0  0  0  0  0  0
   -2.7736    0.4882   -0.6121 H   0  0  0  0  0  0  0  0  0  0  0  0
   -1.4115   -1.4513   -0.6422 H   0  0  0  0  0  0  0  0  0  0  0  0
   -0.5408   -0.8678    2.0961 H   0  0  0  0  0  0  0  0  0  0  0  0
    2.7958    0.2650    0.6166 H   0  0  0  0  0  0  0  0  0  0  0  0
    0.3239    2.0804   -0.4620 H   0  0  0  0  0  0  0  0  0  0  0  0
    1.4347   -1.4722   -1.8276 H   0  0  0  0  0  0  0  0  0  0  0  0
  1  2  1  0
  2  3  1  0
  3  4  1  0
  4  5  1  0
  5  6  1  0
  5  7  1  0
  7  8  1  0
  8  9  1  0
  4  2  1  0
  8  5  1  0
  7  2  1  0
  8  3  1  0
  1 10  1  0
  3 11  1  0
  4 12  1  0
  6 13  1  0
  7 14  1  0
  9 15  1  0
M  END
