
     RDKit          3D

 19 20  0  0  0  0  0  0  0  0999 V2000
   -2.4486    0.2335    0.4244 O   0  0  0  0  0  0  0  0  0  0  0  0
   -1.1415    0.0837    0.0602 C   0  0  0  0  0  0  0  0  0  0  0  0
   -0.5707    1.2773   -0.6268 C   0  0  0  0  0  0  0  0  0  0  0  0
    0.7396    1.4864   -0.5481 C   0  0  0  0  0  0  0  0  0  0  0  0
    1.6085    0.3076   -0.2794 C   0  0  0  0  0  0  0  0  0  0  0  0
    0.9743   -0.7049    0.6288 C   0  0  0  0  0  0  0  0  0  0  0  0
    0.2923   -1.7165   -0.2600 C   0  0  0  0  0  0  0  0  0  0  0  0
   -0.8483   -1.1713   -0.6710 C   0  0  0  0  0  0  0  0  0  0  0  0
   -0.2571   -0.0931    1.3057 C   0  0  0  0  0  0  0  0  0  0  0  0
   -3.0118    0.7339   -0.1968 H   0  0  0  0  0  0  0  0  0  0  0  0
   -1.1645    1.9894   -1.1900 H   0  0  0  0  0  0  0  0  0  0  0  0
    1.1933    2.4773   -0.6718 H   0  0  0  0  0  0  0  0  0  0  0  0
    2.6071    0.6072    0.1313 H   0  0  0  0  0  0  0  0  0  0  0  0
    1.8566   -0.1860   -1.2645 H   0  0  0  0  0  0  0  0  0  0  0  0
    1.6507   -1.1737    1.3399 H   0  0  0  0  0  0  0  0  0  0  0  0
    0.7140   -2.6791   -0.4738 H   0  0  0  0  0  0  0  0  0  0  0  0
   -1.4695   -1.6086   -1.4462 H   0  0  0  0  0  0  0  0  0  0  0  0
   -0.6971   -0.7770    2.0302 H   0  0  0  0  0  0  0  0  0  0  0  0
   -0.0274    0.9139    1.7077 H   0  0  0  0  0  0  0  0  0  0  0  0
  1  2  1  0
  2  3  1  0
  3  4  2  0
  4  5  1  0
  5  6  1  0
  6  7  1  0
  7  8  2  0
  6  9  1  0
  8  2  1  0
  9  2  1  0
  1 10  1  0
  3 11  1  0
  4 12  1  0
  5 13  1  0
  5 14  1  0
  6 15  1  0
  7 16  1  0
  8 17  1  0
  9 18  1  0
  9 19  1  0
M  END
