
     RDKit          3D

 15 18  0  0  0  0  0  0  0  0999 V2000
   -0.0078    1.3796   -1.5629 O   0  0  0  0  0  0  0  0  0  0  0  0
    0.4794    0.4299   -0.7096 C   0  0  0  0  0  0  0  0  0  0  0  0
    0.5383    0.8320    0.8382 C   0  0  0  0  0  0  0  0  0  0  0  0
   -0.5886    0.6424    0.5062 C   0  0  0  0  0  0  0  0  0  0  0  0
   -0.5345   -0.3321    1.1943 C   0  0  0  0  0  0  0  0  0  0  0  0
   -0.6024   -0.7574   -0.3437 C   0  0  0  0  0  0  0  0  0  0  0  0
   -1.8097   -0.6070   -0.9603 O   0  0  0  0  0  0  0  0  0  0  0  0
    0.5057   -0.5188   -0.0282 C   0  0  0  0  0  0  0  0  0  0  0  0
    1.3685   -1.0633    0.8605 O   0  0  0  0  0  0  0  0  0  0  0  0
    0.5794    1.6508   -2.2855 H   0  0  0  0  0  0  0  0  0  0  0  0
    1.4859    0.7820    1.3235 H   0  0  0  0  0  0  0  0  0  0  0  0
   -1.2949    1.0665   -0.1832 H   0  0  0  0  0  0  0  0  0  0  0  0
   -0.2317   -1.0691    1.8988 H   0  0  0  0  0  0  0  0  0  0  0  0
   -2.1897   -1.4703   -1.1910 H   0  0  0  0  0  0  0  0  0  0  0  0
    2.3019   -0.9653    0.6429 H   0  0  0  0  0  0  0  0  0  0  0  0
  1  2  1  0
  2  3  1  0
  3  4  1  0
  4  5  1  0
  5  6  1  0
  6  7  1  0
  6  8  1  0
  8  9  1  0
  6  2  1  0
  8  2  1  0
  5  3  1  0
  8  4  1  0
  1 10  1  0
  3 11  1  0
  4 12  1  0
  5 13  1  0
  7 14  1  0
  9 15  1  0
M  END
