
     RDKit          3D

 19 21  0  0  0  0  0  0  0  0999 V2000
   -0.8366   -1.8988   -0.9814 O   0  0  0  0  0  0  0  0  0  0  0  0
   -0.3618   -0.8023   -0.2986 C   0  0  0  0  0  0  0  0  0  0  0  0
    1.1292   -0.8754   -0.1387 C   0  0  0  0  0  0  0  0  0  0  0  0
    1.7229    0.3222    0.5221 C   0  0  0  0  0  0  0  0  0  0  0  0
    1.2483    1.5219    0.1380 O   0  0  0  0  0  0  0  0  0  0  0  0
   -0.0624    1.6501   -0.1629 C   0  0  0  0  0  0  0  0  0  0  0  0
   -1.1729    0.9909    0.5332 C   0  0  0  0  0  0  0  0  0  0  0  0
   -1.1481   -0.4463    0.9280 C   0  0  0  0  0  0  0  0  0  0  0  0
   -0.7109    0.5347   -0.8751 C   0  0  0  0  0  0  0  0  0  0  0  0
   -0.5223   -1.8826   -1.9376 H   0  0  0  0  0  0  0  0  0  0  0  0
    1.4526   -1.7811    0.4341 H   0  0  0  0  0  0  0  0  0  0  0  0
    1.5652   -0.9847   -1.1548 H   0  0  0  0  0  0  0  0  0  0  0  0
    1.6805    0.1478    1.6368 H   0  0  0  0  0  0  0  0  0  0  0  0
    2.8297    0.2898    0.2917 H   0  0  0  0  0  0  0  0  0  0  0  0
   -0.3088    2.6693   -0.5825 H   0  0  0  0  0  0  0  0  0  0  0  0
   -2.1693    1.4990    0.5749 H   0  0  0  0  0  0  0  0  0  0  0  0
   -0.7197   -0.7088    1.8933 H   0  0  0  0  0  0  0  0  0  0  0  0
   -2.1772   -0.9040    0.8505 H   0  0  0  0  0  0  0  0  0  0  0  0
   -1.4384    0.6583   -1.6710 H   0  0  0  0  0  0  0  0  0  0  0  0
  1  2  1  0
  2  3  1  0
  3  4  1  0
  4  5  1  0
  5  6  1  0
  6  7  1  0
  7  8  1  0
  7  9  1  0
  8  2  1  0
  9  2  1  0
  9  6  1  0
  1 10  1  0
  3 11  1  0
  3 12  1  0
  4 13  1  0
  4 14  1  0
  6 15  1  0
  7 16  1  0
  8 17  1  0
  8 18  1  0
  9 19  1  0
M  END
