
     RDKit          3D

 17 19  0  0  0  0  0  0  0  0999 V2000
   -0.8978    1.2129    1.2956 O   0  0  0  0  0  0  0  0  0  0  0  0
   -0.5891    0.2080    0.4815 C   0  0  0  0  0  0  0  0  0  0  0  0
   -1.6250   -0.6687   -0.1134 C   0  0  0  0  0  0  0  0  0  0  0  0
   -0.8268   -1.5125   -0.9287 O   0  0  0  0  0  0  0  0  0  0  0  0
    0.4497   -1.0927   -0.6381 C   0  0  0  0  0  0  0  0  0  0  0  0
    0.5141   -0.7422    0.8209 C   0  0  0  0  0  0  0  0  0  0  0  0
    1.4647    0.3500    0.4235 C   0  0  0  0  0  0  0  0  0  0  0  0
    0.3923    0.4100   -0.6362 C   0  0  0  0  0  0  0  0  0  0  0  0
    0.3179    1.1852   -1.6134 O   0  0  0  0  0  0  0  0  0  0  0  0
   -1.3763    1.9297    0.8134 H   0  0  0  0  0  0  0  0  0  0  0  0
   -2.0619   -1.3359    0.6592 H   0  0  0  0  0  0  0  0  0  0  0  0
   -2.3865   -0.1532   -0.7224 H   0  0  0  0  0  0  0  0  0  0  0  0
    1.2894   -1.5777   -1.0940 H   0  0  0  0  0  0  0  0  0  0  0  0
    0.5829   -1.3661    1.5984 H   0  0  0  0  0  0  0  0  0  0  0  0
    2.4293   -0.0900    0.1019 H   0  0  0  0  0  0  0  0  0  0  0  0
    1.5233    1.2123    1.1027 H   0  0  0  0  0  0  0  0  0  0  0  0
    0.7999    2.0311   -1.5510 H   0  0  0  0  0  0  0  0  0  0  0  0
  1  2  1  0
  2  3  1  0
  3  4  1  0
  4  5  1  0
  5  6  1  0
  6  7  1  0
  7  8  1  0
  8  9  1  0
  6  2  1  0
  8  2  1  0
  8  5  1  0
  1 10  1  0
  3 11  1  0
  3 12  1  0
  5 13  1  0
  6 14  1  0
  7 15  1  0
  7 16  1  0
  9 17  1  0
M  END
