
     RDKit          3D

 17 19  0  0  0  0  0  0  0  0999 V2000
   -1.7632   -1.6194    0.2558 O   0  0  0  0  0  0  0  0  0  0  0  0
   -0.6710   -0.7676    0.1444 C   0  0  0  0  0  0  0  0  0  0  0  0
   -0.9489    0.6598    0.4425 C   0  0  0  0  0  0  0  0  0  0  0  0
    0.0983    1.6058   -0.1536 C   0  0  0  0  0  0  0  0  0  0  0  0
    1.3817    0.7646   -0.1678 C   0  0  0  0  0  0  0  0  0  0  0  0
    1.2057   -0.1172   -1.2365 O   0  0  0  0  0  0  0  0  0  0  0  0
    0.3410   -1.0800   -0.8331 C   0  0  0  0  0  0  0  0  0  0  0  0
    0.6397   -1.1714    0.6717 C   0  0  0  0  0  0  0  0  0  0  0  0
    1.4242   -0.0759    0.9550 O   0  0  0  0  0  0  0  0  0  0  0  0
   -2.3675   -1.5997   -0.5136 H   0  0  0  0  0  0  0  0  0  0  0  0
   -1.9760    0.9910    0.1979 H   0  0  0  0  0  0  0  0  0  0  0  0
   -0.8395    0.7945    1.5597 H   0  0  0  0  0  0  0  0  0  0  0  0
    0.2087    2.5250    0.4193 H   0  0  0  0  0  0  0  0  0  0  0  0
   -0.1705    1.8982   -1.1943 H   0  0  0  0  0  0  0  0  0  0  0  0
    2.2662    1.3914   -0.2585 H   0  0  0  0  0  0  0  0  0  0  0  0
    0.3128   -2.0349   -1.3753 H   0  0  0  0  0  0  0  0  0  0  0  0
    0.8582   -2.1642    1.0864 H   0  0  0  0  0  0  0  0  0  0  0  0
  1  2  1  0
  2  3  1  0
  3  4  1  0
  4  5  1  0
  5  6  1  0
  6  7  1  0
  7  8  1  0
  8  9  1  0
  7  2  1  0
  8  2  1  0
  9  5  1  0
  1 10  1  0
  3 11  1  0
  3 12  1  0
  4 13  1  0
  4 14  1  0
  5 15  1  0
  7 16  1  0
  8 17  1  0
M  END
