
     RDKit          3D

 15 16  0  0  0  0  0  0  0  0999 V2000
   -0.2546    1.8389    1.0245 O   0  0  0  0  0  0  0  0  0  0  0  0
   -0.1970    0.7042    0.3629 C   0  0  0  0  0  0  0  0  0  0  0  0
   -1.2310    0.2748   -0.5812 C   0  0  0  0  0  0  0  0  0  0  0  0
   -0.7554   -0.9086   -1.0233 C   0  0  0  0  0  0  0  0  0  0  0  0
    0.4971   -1.0681   -0.2512 C   0  0  0  0  0  0  0  0  0  0  0  0
    1.1064    0.3194   -0.3547 C   0  0  0  0  0  0  0  0  0  0  0  0
    0.0359   -0.6033    1.1378 C   0  0  0  0  0  0  0  0  0  0  0  0
    0.0071    2.6052    0.4914 H   0  0  0  0  0  0  0  0  0  0  0  0
   -2.1384    0.8009   -0.8367 H   0  0  0  0  0  0  0  0  0  0  0  0
   -1.1985   -1.5722   -1.7679 H   0  0  0  0  0  0  0  0  0  0  0  0
    1.0974   -1.9209   -0.3289 H   0  0  0  0  0  0  0  0  0  0  0  0
    1.1117    0.6599   -1.3992 H   0  0  0  0  0  0  0  0  0  0  0  0
    2.0098    0.4760    0.2407 H   0  0  0  0  0  0  0  0  0  0  0  0
    0.8236   -0.5383    1.8833 H   0  0  0  0  0  0  0  0  0  0  0  0
   -0.9141   -1.0679    1.4024 H   0  0  0  0  0  0  0  0  0  0  0  0
  1  2  1  0
  2  3  1  0
  3  4  2  0
  4  5  1  0
  5  6  1  0
  5  7  1  0
  6  2  1  0
  7  2  1  0
  1  8  1  0
  3  9  1  0
  4 10  1  0
  5 11  1  0
  6 12  1  0
  6 13  1  0
  7 14  1  0
  7 15  1  0
M  END
