
     RDKit          3D

 17 19  0  0  0  0  0  0  0  0999 V2000
   -2.2154    1.2035   -0.5905 O   0  0  0  0  0  0  0  0  0  0  0  0
   -1.0611    0.6508   -0.0629 C   0  0  0  0  0  0  0  0  0  0  0  0
    0.1653    1.4735    0.0591 C   0  0  0  0  0  0  0  0  0  0  0  0
    1.3897    0.9833    0.0155 C   0  0  0  0  0  0  0  0  0  0  0  0
    1.6688   -0.4759   -0.1643 C   0  0  0  0  0  0  0  0  0  0  0  0
    0.4442   -1.2942    0.2196 C   0  0  0  0  0  0  0  0  0  0  0  0
   -0.0142   -0.9285    1.4908 O   0  0  0  0  0  0  0  0  0  0  0  0
   -1.1981   -0.4156    0.9639 C   0  0  0  0  0  0  0  0  0  0  0  0
   -0.8047   -0.7599   -0.4117 C   0  0  0  0  0  0  0  0  0  0  0  0
   -2.1129    1.2803   -1.5902 H   0  0  0  0  0  0  0  0  0  0  0  0
    0.0308    2.5305    0.1903 H   0  0  0  0  0  0  0  0  0  0  0  0
    2.2621    1.6262    0.1095 H   0  0  0  0  0  0  0  0  0  0  0  0
    1.9932   -0.7058   -1.1889 H   0  0  0  0  0  0  0  0  0  0  0  0
    2.4823   -0.8049    0.5177 H   0  0  0  0  0  0  0  0  0  0  0  0
    0.5847   -2.3616    0.0732 H   0  0  0  0  0  0  0  0  0  0  0  0
   -2.1647   -0.6382    1.4088 H   0  0  0  0  0  0  0  0  0  0  0  0
   -1.4500   -1.3634   -1.0397 H   0  0  0  0  0  0  0  0  0  0  0  0
  1  2  1  0
  2  3  1  0
  3  4  2  0
  4  5  1  0
  5  6  1  0
  6  7  1  0
  7  8  1  0
  8  9  1  0
  8  2  1  0
  9  2  1  0
  9  6  1  0
  1 10  1  0
  3 11  1  0
  4 12  1  0
  5 13  1  0
  5 14  1  0
  6 15  1  0
  8 16  1  0
  9 17  1  0
M  END
