
     RDKit          3D

 19 21  0  0  0  0  0  0  0  0999 V2000
    2.0210   -1.8605   -0.0225 O   0  0  0  0  0  0  0  0  0  0  0  0
    1.1265   -0.7853    0.0153 C   0  0  0  0  0  0  0  0  0  0  0  0
    1.7901    0.5428    0.1400 C   0  0  0  0  0  0  0  0  0  0  0  0
    0.9254    1.4587   -0.2432 C   0  0  0  0  0  0  0  0  0  0  0  0
   -0.3507    0.8816   -0.6538 C   0  0  0  0  0  0  0  0  0  0  0  0
   -1.4743    0.7945    0.3268 C   0  0  0  0  0  0  0  0  0  0  0  0
   -1.6021   -0.7467    0.4995 C   0  0  0  0  0  0  0  0  0  0  0  0
   -0.1399   -1.0155    0.7001 C   0  0  0  0  0  0  0  0  0  0  0  0
    0.0496   -0.5384   -0.7576 C   0  0  0  0  0  0  0  0  0  0  0  0
    2.6410   -1.7800   -0.7991 H   0  0  0  0  0  0  0  0  0  0  0  0
    2.8230    0.7239    0.4918 H   0  0  0  0  0  0  0  0  0  0  0  0
    1.1393    2.5656   -0.2557 H   0  0  0  0  0  0  0  0  0  0  0  0
   -0.7026    1.3031   -1.6422 H   0  0  0  0  0  0  0  0  0  0  0  0
   -1.3023    1.2692    1.2876 H   0  0  0  0  0  0  0  0  0  0  0  0
   -2.4095    1.0858   -0.1852 H   0  0  0  0  0  0  0  0  0  0  0  0
   -2.0658   -1.2155   -0.3696 H   0  0  0  0  0  0  0  0  0  0  0  0
   -2.1612   -1.0324    1.3724 H   0  0  0  0  0  0  0  0  0  0  0  0
    0.0394   -0.4449    1.6281 H   0  0  0  0  0  0  0  0  0  0  0  0
   -0.3470   -1.2061   -1.5326 H   0  0  0  0  0  0  0  0  0  0  0  0
  1  2  1  0
  2  3  1  0
  3  4  2  0
  4  5  1  0
  5  6  1  0
  6  7  1  0
  7  8  1  0
  8  9  1  0
  8  2  1  0
  9  2  1  0
  9  5  1  0
  1 10  1  0
  3 11  1  0
  4 12  1  0
  5 13  1  0
  6 14  1  0
  6 15  1  0
  7 16  1  0
  7 17  1  0
  8 18  1  0
  9 19  1  0
M  END
