
     RDKit          3D

 19 21  0  0  0  0  0  0  0  0999 V2000
   -1.3111   -1.7372   -0.8948 O   0  0  0  0  0  0  0  0  0  0  0  0
   -0.5736   -0.7048   -0.3870 C   0  0  0  0  0  0  0  0  0  0  0  0
   -0.4203   -0.6650    1.1219 C   0  0  0  0  0  0  0  0  0  0  0  0
   -0.3265    0.8486    0.8662 C   0  0  0  0  0  0  0  0  0  0  0  0
   -1.4620    0.5360   -0.1327 C   0  0  0  0  0  0  0  0  0  0  0  0
    0.8506    1.2119    0.0278 C   0  0  0  0  0  0  0  0  0  0  0  0
    1.8162    0.0694   -0.2081 C   0  0  0  0  0  0  0  0  0  0  0  0
    0.6716   -0.3150   -1.0929 C   0  0  0  0  0  0  0  0  0  0  0  0
    0.5968    1.0772   -1.3644 O   0  0  0  0  0  0  0  0  0  0  0  0
   -1.3949   -2.5194   -0.3001 H   0  0  0  0  0  0  0  0  0  0  0  0
    0.4239   -1.1419    1.5716 H   0  0  0  0  0  0  0  0  0  0  0  0
   -1.4017   -0.8505    1.6225 H   0  0  0  0  0  0  0  0  0  0  0  0
   -0.6041    1.4799    1.6924 H   0  0  0  0  0  0  0  0  0  0  0  0
   -1.4394    1.2594   -0.9489 H   0  0  0  0  0  0  0  0  0  0  0  0
   -2.4087    0.3081    0.3503 H   0  0  0  0  0  0  0  0  0  0  0  0
    1.2934    2.1850    0.2416 H   0  0  0  0  0  0  0  0  0  0  0  0
    2.6613    0.4412   -0.8276 H   0  0  0  0  0  0  0  0  0  0  0  0
    2.1085   -0.5470    0.6124 H   0  0  0  0  0  0  0  0  0  0  0  0
    0.9200   -0.9359   -1.9502 H   0  0  0  0  0  0  0  0  0  0  0  0
  1  2  1  0
  2  3  1  0
  3  4  1  0
  4  5  1  0
  4  6  1  0
  6  7  1  0
  7  8  1  0
  8  9  1  0
  5  2  1  0
  9  6  1  0
  8  2  1  0
  1 10  1  0
  3 11  1  0
  3 12  1  0
  4 13  1  0
  5 14  1  0
  5 15  1  0
  6 16  1  0
  7 17  1  0
  7 18  1  0
  8 19  1  0
M  END
