
     RDKit          3D

 17 19  0  0  0  0  0  0  0  0999 V2000
    0.8854    2.2556   -0.2574 O   0  0  0  0  0  0  0  0  0  0  0  0
    0.3469    1.0022   -0.3481 C   0  0  0  0  0  0  0  0  0  0  0  0
   -1.1618    0.9028   -0.5102 C   0  0  0  0  0  0  0  0  0  0  0  0
   -1.0788   -0.3743    0.3335 C   0  0  0  0  0  0  0  0  0  0  0  0
   -0.7292   -1.5444   -0.5469 C   0  0  0  0  0  0  0  0  0  0  0  0
    0.5439   -1.4542   -0.9183 C   0  0  0  0  0  0  0  0  0  0  0  0
    1.1569   -0.2364   -0.3318 C   0  0  0  0  0  0  0  0  0  0  0  0
    0.2592    0.0791    0.7851 C   0  0  0  0  0  0  0  0  0  0  0  0
    0.6118    0.3275    2.0540 O   0  0  0  0  0  0  0  0  0  0  0  0
    1.7599    2.3047    0.1737 H   0  0  0  0  0  0  0  0  0  0  0  0
   -1.4322    0.7472   -1.5573 H   0  0  0  0  0  0  0  0  0  0  0  0
   -1.7364    1.6846    0.0274 H   0  0  0  0  0  0  0  0  0  0  0  0
   -1.8719   -0.5274    1.0486 H   0  0  0  0  0  0  0  0  0  0  0  0
   -1.4404   -2.2979   -0.7976 H   0  0  0  0  0  0  0  0  0  0  0  0
    1.0457   -2.1706   -1.5546 H   0  0  0  0  0  0  0  0  0  0  0  0
    2.2214   -0.1579   -0.1699 H   0  0  0  0  0  0  0  0  0  0  0  0
    0.6195   -0.5407    2.5696 H   0  0  0  0  0  0  0  0  0  0  0  0
  1  2  1  0
  2  3  1  0
  3  4  1  0
  4  5  1  0
  5  6  2  0
  6  7  1  0
  7  8  1  0
  8  9  1  0
  7  2  1  0
  8  2  1  0
  8  4  1  0
  1 10  1  0
  3 11  1  0
  3 12  1  0
  4 13  1  0
  5 14  1  0
  6 15  1  0
  7 16  1  0
  9 17  1  0
M  END
