
     RDKit          3D

 17 19  0  0  0  0  0  0  0  0999 V2000
    1.2779   -1.5005    0.4025 O   0  0  0  0  0  0  0  0  0  0  0  0
    0.7249   -0.4589   -0.2939 C   0  0  0  0  0  0  0  0  0  0  0  0
    1.4951    0.8005   -0.4009 C   0  0  0  0  0  0  0  0  0  0  0  0
    0.3263    0.8133    0.5368 C   0  0  0  0  0  0  0  0  0  0  0  0
    0.4819    0.7616    1.8830 O   0  0  0  0  0  0  0  0  0  0  0  0
   -1.0770    0.9371   -0.0044 C   0  0  0  0  0  0  0  0  0  0  0  0
   -1.6271   -0.4724    0.0805 C   0  0  0  0  0  0  0  0  0  0  0  0
   -0.5969   -0.6152   -1.0052 C   0  0  0  0  0  0  0  0  0  0  0  0
   -0.8837    0.7104   -1.3598 O   0  0  0  0  0  0  0  0  0  0  0  0
    1.9994   -1.8928   -0.1847 H   0  0  0  0  0  0  0  0  0  0  0  0
    2.4787    0.8135    0.0626 H   0  0  0  0  0  0  0  0  0  0  0  0
    1.4108    1.4101   -1.3137 H   0  0  0  0  0  0  0  0  0  0  0  0
    0.4050   -0.0958    2.3168 H   0  0  0  0  0  0  0  0  0  0  0  0
   -1.6913    1.7473    0.3142 H   0  0  0  0  0  0  0  0  0  0  0  0
   -1.3498   -1.0390    0.9744 H   0  0  0  0  0  0  0  0  0  0  0  0
   -2.6666   -0.5448   -0.2647 H   0  0  0  0  0  0  0  0  0  0  0  0
   -0.7076   -1.3745   -1.7435 H   0  0  0  0  0  0  0  0  0  0  0  0
  1  2  1  0
  2  3  1  0
  3  4  1  0
  4  5  1  0
  4  6  1  0
  6  7  1  0
  7  8  1  0
  8  9  1  0
  4  2  1  0
  9  6  1  0
  8  2  1  0
  1 10  1  0
  3 11  1  0
  3 12  1  0
  5 13  1  0
  6 14  1  0
  7 15  1  0
  7 16  1  0
  8 17  1  0
M  END
