
     RDKit          3D

 19 21  0  0  0  0  0  0  0  0999 V2000
   -0.8619   -1.7806   -0.7240 O   0  0  0  0  0  0  0  0  0  0  0  0
   -0.1687   -0.7473   -0.1195 C   0  0  0  0  0  0  0  0  0  0  0  0
    1.2735   -0.9886    0.1688 C   0  0  0  0  0  0  0  0  0  0  0  0
    1.9760    0.3760    0.1133 C   0  0  0  0  0  0  0  0  0  0  0  0
    1.1753    1.2337    0.8763 O   0  0  0  0  0  0  0  0  0  0  0  0
   -0.1464    1.2072    0.5295 C   0  0  0  0  0  0  0  0  0  0  0  0
   -0.8977   -0.0054    0.9666 C   0  0  0  0  0  0  0  0  0  0  0  0
   -1.8830    0.3448   -0.1286 C   0  0  0  0  0  0  0  0  0  0  0  0
   -0.5244    0.5637   -0.7603 C   0  0  0  0  0  0  0  0  0  0  0  0
   -1.0351   -1.5447   -1.6686 H   0  0  0  0  0  0  0  0  0  0  0  0
    1.4369   -1.3547    1.2029 H   0  0  0  0  0  0  0  0  0  0  0  0
    1.6720   -1.6745   -0.5945 H   0  0  0  0  0  0  0  0  0  0  0  0
    2.9800    0.3377    0.5452 H   0  0  0  0  0  0  0  0  0  0  0  0
    1.9915    0.6509   -0.9582 H   0  0  0  0  0  0  0  0  0  0  0  0
   -0.6616    2.1414    0.8044 H   0  0  0  0  0  0  0  0  0  0  0  0
   -1.1148   -0.3199    1.8860 H   0  0  0  0  0  0  0  0  0  0  0  0
   -2.4675    1.2567    0.0210 H   0  0  0  0  0  0  0  0  0  0  0  0
   -2.3998   -0.5572   -0.4652 H   0  0  0  0  0  0  0  0  0  0  0  0
   -0.3442    0.8608   -1.6952 H   0  0  0  0  0  0  0  0  0  0  0  0
  1  2  1  0
  2  3  1  0
  3  4  1  0
  4  5  1  0
  5  6  1  0
  6  7  1  0
  7  8  1  0
  8  9  1  0
  7  2  1  0
  9  2  1  0
  9  6  1  0
  1 10  1  0
  3 11  1  0
  3 12  1  0
  4 13  1  0
  4 14  1  0
  6 15  1  0
  7 16  1  0
  8 17  1  0
  8 18  1  0
  9 19  1  0
M  END
