
     RDKit          3D

 21 22  0  0  0  0  0  0  0  0999 V2000
    0.5305    1.7257   -1.1988 O   0  0  0  0  0  0  0  0  0  0  0  0
    0.2462    0.7879   -0.2228 C   0  0  0  0  0  0  0  0  0  0  0  0
    1.4418    0.7006    0.6979 C   0  0  0  0  0  0  0  0  0  0  0  0
    2.0726   -0.5868    0.3772 C   0  0  0  0  0  0  0  0  0  0  0  0
    1.3662   -1.2901   -0.4948 C   0  0  0  0  0  0  0  0  0  0  0  0
    0.1409   -0.5558   -0.8856 C   0  0  0  0  0  0  0  0  0  0  0  0
   -1.0562   -1.2521   -0.3130 C   0  0  0  0  0  0  0  0  0  0  0  0
   -1.8616   -0.2215    0.4290 C   0  0  0  0  0  0  0  0  0  0  0  0
   -1.0318    1.0310    0.5077 C   0  0  0  0  0  0  0  0  0  0  0  0
   -0.1355    2.4163   -1.3180 H   0  0  0  0  0  0  0  0  0  0  0  0
    2.1784    1.5261    0.4975 H   0  0  0  0  0  0  0  0  0  0  0  0
    1.1685    0.8092    1.7653 H   0  0  0  0  0  0  0  0  0  0  0  0
    3.0123   -0.9574    0.7875 H   0  0  0  0  0  0  0  0  0  0  0  0
    1.5994   -2.2815   -0.9092 H   0  0  0  0  0  0  0  0  0  0  0  0
    0.1192   -0.5045   -1.9827 H   0  0  0  0  0  0  0  0  0  0  0  0
   -0.7556   -2.0744    0.3651 H   0  0  0  0  0  0  0  0  0  0  0  0
   -1.6601   -1.7007   -1.1537 H   0  0  0  0  0  0  0  0  0  0  0  0
   -2.8274   -0.0502   -0.1281 H   0  0  0  0  0  0  0  0  0  0  0  0
   -2.1552   -0.6172    1.4226 H   0  0  0  0  0  0  0  0  0  0  0  0
   -1.5998    1.9063    0.1700 H   0  0  0  0  0  0  0  0  0  0  0  0
   -0.7927    1.1894    1.5870 H   0  0  0  0  0  0  0  0  0  0  0  0
  1  2  1  0
  2  3  1  0
  3  4  1  0
  4  5  2  0
  5  6  1  0
  6  7  1  0
  7  8  1  0
  8  9  1  0
  6  2  1  0
  9  2  1  0
  1 10  1  0
  3 11  1  0
  3 12  1  0
  4 13  1  0
  5 14  1  0
  6 15  1  0
  7 16  1  0
  7 17  1  0
  8 18  1  0
  8 19  1  0
  9 20  1  0
  9 21  1  0
M  END
