
     RDKit          3D

 21 23  0  0  0  0  0  0  0  0999 V2000
    1.2959   -1.9737    0.0234 O   0  0  0  0  0  0  0  0  0  0  0  0
    1.0395   -0.6403    0.2670 C   0  0  0  0  0  0  0  0  0  0  0  0
    2.0774    0.1845    0.9600 C   0  0  0  0  0  0  0  0  0  0  0  0
    1.7685    0.4377   -0.4664 C   0  0  0  0  0  0  0  0  0  0  0  0
    0.4263    1.1046   -0.7798 C   0  0  0  0  0  0  0  0  0  0  0  0
   -0.2371    0.0056   -0.0409 C   0  0  0  0  0  0  0  0  0  0  0  0
   -1.1730    0.3603    1.0603 C   0  0  0  0  0  0  0  0  0  0  0  0
   -2.3063    0.1434    0.0462 C   0  0  0  0  0  0  0  0  0  0  0  0
   -1.3134   -0.7550   -0.7110 C   0  0  0  0  0  0  0  0  0  0  0  0
    1.6031   -2.1653   -0.8940 H   0  0  0  0  0  0  0  0  0  0  0  0
    1.6648    0.8456    1.7500 H   0  0  0  0  0  0  0  0  0  0  0  0
    3.1008   -0.2375    1.1419 H   0  0  0  0  0  0  0  0  0  0  0  0
    2.4697    0.2344   -1.2713 H   0  0  0  0  0  0  0  0  0  0  0  0
    0.1934    1.1629   -1.8502 H   0  0  0  0  0  0  0  0  0  0  0  0
    0.3164    2.0722   -0.2230 H   0  0  0  0  0  0  0  0  0  0  0  0
   -1.0823    1.3924    1.3873 H   0  0  0  0  0  0  0  0  0  0  0  0
   -1.2510   -0.4198    1.8546 H   0  0  0  0  0  0  0  0  0  0  0  0
   -2.5262    1.0530   -0.5613 H   0  0  0  0  0  0  0  0  0  0  0  0
   -3.1819   -0.3702    0.4377 H   0  0  0  0  0  0  0  0  0  0  0  0
   -1.4490   -1.7949   -0.3369 H   0  0  0  0  0  0  0  0  0  0  0  0
   -1.4357   -0.6399   -1.7937 H   0  0  0  0  0  0  0  0  0  0  0  0
  1  2  1  0
  2  3  1  0
  3  4  1  0
  4  5  1  0
  5  6  1  0
  6  7  1  0
  7  8  1  0
  8  9  1  0
  4  2  1  0
  9  6  1  0
  6  2  1  0
  1 10  1  0
  3 11  1  0
  3 12  1  0
  4 13  1  0
  5 14  1  0
  5 15  1  0
  7 16  1  0
  7 17  1  0
  8 18  1  0
  8 19  1  0
  9 20  1  0
  9 21  1  0
M  END
