
     RDKit          3D

 16 18  0  0  0  0  0  0  0  0999 V2000
   -1.8382   -1.0526    1.0050 O   0  0  0  0  0  0  0  0  0  0  0  0
   -0.8142   -0.4553    0.3426 C   0  0  0  0  0  0  0  0  0  0  0  0
   -1.0455    0.4416   -0.8474 C   0  0  0  0  0  0  0  0  0  0  0  0
    0.1020    1.3125   -0.3254 C   0  0  0  0  0  0  0  0  0  0  0  0
    1.3262    0.9375   -0.8246 O   0  0  0  0  0  0  0  0  0  0  0  0
    1.5657   -0.3721   -0.5035 C   0  0  0  0  0  0  0  0  0  0  0  0
    0.6240   -0.7450    0.6395 C   0  0  0  0  0  0  0  0  0  0  0  0
    0.0121    0.5597    0.9604 C   0  0  0  0  0  0  0  0  0  0  0  0
   -2.0304   -1.9904    0.7522 H   0  0  0  0  0  0  0  0  0  0  0  0
   -0.7387   -0.0923   -1.7774 H   0  0  0  0  0  0  0  0  0  0  0  0
   -1.9888    0.9802   -0.8865 H   0  0  0  0  0  0  0  0  0  0  0  0
   -0.0774    2.3790   -0.3222 H   0  0  0  0  0  0  0  0  0  0  0  0
    2.6278   -0.4347   -0.1270 H   0  0  0  0  0  0  0  0  0  0  0  0
    1.4130   -0.9914   -1.3936 H   0  0  0  0  0  0  0  0  0  0  0  0
    0.9318   -1.4787    1.3814 H   0  0  0  0  0  0  0  0  0  0  0  0
   -0.0696    1.0025    1.9266 H   0  0  0  0  0  0  0  0  0  0  0  0
  1  2  1  0
  2  3  1  0
  3  4  1  0
  4  5  1  0
  5  6  1  0
  6  7  1  0
  7  8  1  0
  7  2  1  0
  8  2  1  0
  8  4  1  0
  1  9  1  0
  3 10  1  0
  3 11  1  0
  4 12  1  0
  6 13  1  0
  6 14  1  0
  7 15  1  0
  8 16  1  0
M  END
