
     RDKit          3D

 16 19  0  0  0  0  0  0  0  0999 V2000
    2.1577    0.0537   -0.6196 O   0  0  0  0  0  0  0  0  0  0  0  0
    1.0690   -0.0359    0.1297 C   0  0  0  0  0  0  0  0  0  0  0  0
    0.2003    1.2141    0.4202 C   0  0  0  0  0  0  0  0  0  0  0  0
   -1.2656    0.7261    0.4990 C   0  0  0  0  0  0  0  0  0  0  0  0
   -0.8816   -0.1032   -0.3564 C   0  0  0  0  0  0  0  0  0  0  0  0
   -1.3212   -0.8750    0.3893 C   0  0  0  0  0  0  0  0  0  0  0  0
    0.1332   -1.3161   -0.1364 C   0  0  0  0  0  0  0  0  0  0  0  0
    0.1938   -0.6236    0.8050 C   0  0  0  0  0  0  0  0  0  0  0  0
    2.9782    0.0624   -0.0286 H   0  0  0  0  0  0  0  0  0  0  0  0
    0.5113    1.6859    1.3582 H   0  0  0  0  0  0  0  0  0  0  0  0
    0.2471    1.9206   -0.4255 H   0  0  0  0  0  0  0  0  0  0  0  0
   -1.8274    1.0716    1.3533 H   0  0  0  0  0  0  0  0  0  0  0  0
   -0.6190   -0.0566   -1.3882 H   0  0  0  0  0  0  0  0  0  0  0  0
   -1.6447   -1.3924    1.3060 H   0  0  0  0  0  0  0  0  0  0  0  0
    0.1478   -1.6721   -1.1780 H   0  0  0  0  0  0  0  0  0  0  0  0
   -0.0789   -0.6594    1.8397 H   0  0  0  0  0  0  0  0  0  0  0  0
  1  2  1  0
  2  3  1  0
  3  4  1  0
  4  5  1  0
  5  6  1  0
  6  7  1  0
  7  8  1  0
  7  2  1  0
  8  2  1  0
  6  4  1  0
  8  5  1  0
  1  9  1  0
  3 10  1  0
  3 11  1  0
  4 12  1  0
  5 13  1  0
  6 14  1  0
  7 15  1  0
  8 16  1  0
M  END
