
     RDKit          3D

 19 22  0  0  0  0  0  0  0  0999 V2000
   -0.8287    2.1788    0.6751 O   0  0  0  0  0  0  0  0  0  0  0  0
   -0.6093    0.8641    0.4470 C   0  0  0  0  0  0  0  0  0  0  0  0
    0.6224    0.1560    0.9191 C   0  0  0  0  0  0  0  0  0  0  0  0
    1.7392    0.4801   -0.0912 C   0  0  0  0  0  0  0  0  0  0  0  0
    0.7769   -0.2616   -1.0367 C   0  0  0  0  0  0  0  0  0  0  0  0
    0.5265   -1.1590    0.1746 C   0  0  0  0  0  0  0  0  0  0  0  0
   -0.9194   -1.4582    0.1416 C   0  0  0  0  0  0  0  0  0  0  0  0
   -1.4974   -0.0777   -0.1987 C   0  0  0  0  0  0  0  0  0  0  0  0
   -0.5048    0.5103   -1.0812 C   0  0  0  0  0  0  0  0  0  0  0  0
   -1.4222    2.4189    1.4040 H   0  0  0  0  0  0  0  0  0  0  0  0
    0.8874    0.1505    1.9478 H   0  0  0  0  0  0  0  0  0  0  0  0
    2.6498   -0.0702    0.1522 H   0  0  0  0  0  0  0  0  0  0  0  0
    1.8180    1.5559   -0.2814 H   0  0  0  0  0  0  0  0  0  0  0  0
    1.1871   -0.6977   -1.9087 H   0  0  0  0  0  0  0  0  0  0  0  0
    1.2514   -1.9149    0.3821 H   0  0  0  0  0  0  0  0  0  0  0  0
   -1.1976   -2.2057   -0.6392 H   0  0  0  0  0  0  0  0  0  0  0  0
   -1.2468   -1.8100    1.1259 H   0  0  0  0  0  0  0  0  0  0  0  0
   -2.5606    0.0286   -0.3415 H   0  0  0  0  0  0  0  0  0  0  0  0
   -0.6718    1.3119   -1.7907 H   0  0  0  0  0  0  0  0  0  0  0  0
  1  2  1  0
  2  3  1  0
  3  4  1  0
  4  5  1  0
  5  6  1  0
  6  7  1  0
  7  8  1  0
  8  9  1  0
  8  2  1  0
  9  2  1  0
  6  3  1  0
  9  5  1  0
  1 10  1  0
  3 11  1  0
  4 12  1  0
  4 13  1  0
  5 14  1  0
  6 15  1  0
  7 16  1  0
  7 17  1  0
  8 18  1  0
  9 19  1  0
M  END
