
     RDKit          3D

 17 20  0  0  0  0  0  0  0  0999 V2000
    1.7024    0.7346   -1.5078 O   0  0  0  0  0  0  0  0  0  0  0  0
    0.7553    0.2461   -0.7018 C   0  0  0  0  0  0  0  0  0  0  0  0
    0.1081    0.9781    0.4215 C   0  0  0  0  0  0  0  0  0  0  0  0
   -1.3620    0.7965    0.0057 C   0  0  0  0  0  0  0  0  0  0  0  0
   -1.2852   -0.7399   -0.0320 C   0  0  0  0  0  0  0  0  0  0  0  0
   -0.8973   -0.9464    1.3052 O   0  0  0  0  0  0  0  0  0  0  0  0
    0.3157   -0.2130    1.2938 C   0  0  0  0  0  0  0  0  0  0  0  0
    1.0133   -0.8912    0.1551 C   0  0  0  0  0  0  0  0  0  0  0  0
   -0.0492   -0.9609   -0.8716 C   0  0  0  0  0  0  0  0  0  0  0  0
    2.3976    1.2113   -0.9538 H   0  0  0  0  0  0  0  0  0  0  0  0
    0.4217    1.9433    0.7140 H   0  0  0  0  0  0  0  0  0  0  0  0
   -2.0493    1.1542    0.7723 H   0  0  0  0  0  0  0  0  0  0  0  0
   -1.5478    1.1521   -1.0067 H   0  0  0  0  0  0  0  0  0  0  0  0
   -2.1727   -1.2227   -0.3403 H   0  0  0  0  0  0  0  0  0  0  0  0
    0.8206   -0.1085    2.2339 H   0  0  0  0  0  0  0  0  0  0  0  0
    1.8723   -1.5080    0.2342 H   0  0  0  0  0  0  0  0  0  0  0  0
   -0.0433   -1.6256   -1.7217 H   0  0  0  0  0  0  0  0  0  0  0  0
  1  2  1  0
  2  3  1  0
  3  4  1  0
  4  5  1  0
  5  6  1  0
  6  7  1  0
  7  8  1  0
  8  9  1  0
  8  2  1  0
  9  2  1  0
  7  3  1  0
  9  5  1  0
  1 10  1  0
  3 11  1  0
  4 12  1  0
  4 13  1  0
  5 14  1  0
  7 15  1  0
  8 16  1  0
  9 17  1  0
M  END
