
     RDKit          3D

 19 21  0  0  0  0  0  0  0  0999 V2000
   -0.6125   -2.1030   -0.1929 O   0  0  0  0  0  0  0  0  0  0  0  0
   -0.5537   -0.7413    0.1870 C   0  0  0  0  0  0  0  0  0  0  0  0
   -1.8376   -0.1270    0.5352 C   0  0  0  0  0  0  0  0  0  0  0  0
   -1.1730    0.2759   -0.7098 C   0  0  0  0  0  0  0  0  0  0  0  0
   -0.4279    1.5979   -0.6629 C   0  0  0  0  0  0  0  0  0  0  0  0
    0.8720    1.3264   -1.0746 O   0  0  0  0  0  0  0  0  0  0  0  0
    1.5137    0.6729   -0.0483 C   0  0  0  0  0  0  0  0  0  0  0  0
    1.9448   -0.7152   -0.1981 C   0  0  0  0  0  0  0  0  0  0  0  0
    0.7587   -0.3099    0.6978 C   0  0  0  0  0  0  0  0  0  0  0  0
   -0.7207   -2.5972    0.6797 H   0  0  0  0  0  0  0  0  0  0  0  0
   -1.9461    0.6406    1.3392 H   0  0  0  0  0  0  0  0  0  0  0  0
   -2.7631   -0.7305    0.4203 H   0  0  0  0  0  0  0  0  0  0  0  0
   -1.4319   -0.0844   -1.7030 H   0  0  0  0  0  0  0  0  0  0  0  0
   -0.3387    1.9575    0.4016 H   0  0  0  0  0  0  0  0  0  0  0  0
   -0.9364    2.3615   -1.2458 H   0  0  0  0  0  0  0  0  0  0  0  0
    2.2126    1.3431    0.5331 H   0  0  0  0  0  0  0  0  0  0  0  0
    2.7995   -1.1351    0.3725 H   0  0  0  0  0  0  0  0  0  0  0  0
    1.7352   -1.2554   -1.1267 H   0  0  0  0  0  0  0  0  0  0  0  0
    0.9052   -0.3768    1.7958 H   0  0  0  0  0  0  0  0  0  0  0  0
  1  2  1  0
  2  3  1  0
  3  4  1  0
  4  5  1  0
  5  6  1  0
  6  7  1  0
  7  8  1  0
  8  9  1  0
  4  2  1  0
  9  7  1  0
  9  2  1  0
  1 10  1  0
  3 11  1  0
  3 12  1  0
  4 13  1  0
  5 14  1  0
  5 15  1  0
  7 16  1  0
  8 17  1  0
  8 18  1  0
  9 19  1  0
M  END
