
     RDKit          3D

 19 21  0  0  0  0  0  0  0  0999 V2000
   -0.6195   -0.9517    1.5318 O   0  0  0  0  0  0  0  0  0  0  0  0
   -0.9598   -0.5437    0.2159 C   0  0  0  0  0  0  0  0  0  0  0  0
    0.0672   -0.9357   -0.7461 C   0  0  0  0  0  0  0  0  0  0  0  0
    1.2034    0.0568   -0.6708 C   0  0  0  0  0  0  0  0  0  0  0  0
    1.9449    0.0241    0.6521 C   0  0  0  0  0  0  0  0  0  0  0  0
    1.1157    1.1480    0.2630 C   0  0  0  0  0  0  0  0  0  0  0  0
   -0.1223    1.4464    0.8363 O   0  0  0  0  0  0  0  0  0  0  0  0
   -1.0663    1.0067   -0.0200 C   0  0  0  0  0  0  0  0  0  0  0  0
   -2.1870    0.1498    0.0922 C   0  0  0  0  0  0  0  0  0  0  0  0
   -1.2616   -1.6412    1.7907 H   0  0  0  0  0  0  0  0  0  0  0  0
   -0.3006   -1.0681   -1.8059 H   0  0  0  0  0  0  0  0  0  0  0  0
    0.5046   -1.9305   -0.4804 H   0  0  0  0  0  0  0  0  0  0  0  0
    1.7802    0.1478   -1.6043 H   0  0  0  0  0  0  0  0  0  0  0  0
    1.6988   -0.7341    1.4057 H   0  0  0  0  0  0  0  0  0  0  0  0
    3.0580    0.1330    0.5286 H   0  0  0  0  0  0  0  0  0  0  0  0
    1.6489    2.0995   -0.0388 H   0  0  0  0  0  0  0  0  0  0  0  0
   -0.8268    1.3703   -1.0657 H   0  0  0  0  0  0  0  0  0  0  0  0
   -2.8250   -0.0310   -0.8092 H   0  0  0  0  0  0  0  0  0  0  0  0
   -2.8527    0.2536    0.9886 H   0  0  0  0  0  0  0  0  0  0  0  0
  1  2  1  0
  2  3  1  0
  3  4  1  0
  4  5  1  0
  5  6  1  0
  6  7  1  0
  7  8  1  0
  8  9  1  0
  8  2  1  0
  9  2  1  0
  6  4  1  0
  1 10  1  0
  3 11  1  0
  3 12  1  0
  4 13  1  0
  5 14  1  0
  5 15  1  0
  6 16  1  0
  8 17  1  0
  9 18  1  0
  9 19  1  0
M  END
