
     RDKit          3D

 19 21  0  0  0  0  0  0  0  0999 V2000
    0.6997    1.3445   -1.2988 O   0  0  0  0  0  0  0  0  0  0  0  0
    0.1902    0.3313   -0.5959 C   0  0  0  0  0  0  0  0  0  0  0  0
   -0.1561    0.5341    0.9099 C   0  0  0  0  0  0  0  0  0  0  0  0
    1.0064    0.3480    1.4556 C   0  0  0  0  0  0  0  0  0  0  0  0
    1.9617   -0.0053    0.3101 C   0  0  0  0  0  0  0  0  0  0  0  0
    0.9170   -0.9830   -0.3482 C   0  0  0  0  0  0  0  0  0  0  0  0
   -0.3999   -0.8332   -0.9227 C   0  0  0  0  0  0  0  0  0  0  0  0
   -1.7711   -0.6203   -0.2605 C   0  0  0  0  0  0  0  0  0  0  0  0
   -1.6043    0.7346    0.6054 C   0  0  0  0  0  0  0  0  0  0  0  0
    1.2171    1.0246   -2.0521 H   0  0  0  0  0  0  0  0  0  0  0  0
    1.1950    0.4378    2.5041 H   0  0  0  0  0  0  0  0  0  0  0  0
    2.2413    0.8128   -0.3037 H   0  0  0  0  0  0  0  0  0  0  0  0
    2.7953   -0.6054    0.6165 H   0  0  0  0  0  0  0  0  0  0  0  0
    0.7561   -1.6827    0.4847 H   0  0  0  0  0  0  0  0  0  0  0  0
   -0.5393   -1.1903   -1.9682 H   0  0  0  0  0  0  0  0  0  0  0  0
   -1.9008   -1.3980    0.4897 H   0  0  0  0  0  0  0  0  0  0  0  0
   -2.5656   -0.4859   -0.9656 H   0  0  0  0  0  0  0  0  0  0  0  0
   -2.2694    0.7113    1.4347 H   0  0  0  0  0  0  0  0  0  0  0  0
   -1.7735    1.5251   -0.0952 H   0  0  0  0  0  0  0  0  0  0  0  0
  1  2  1  0
  2  3  1  0
  3  4  2  0
  4  5  1  0
  5  6  1  0
  6  7  1  0
  7  8  1  0
  8  9  1  0
  6  2  1  0
  7  2  1  0
  9  3  1  0
  1 10  1  0
  4 11  1  0
  5 12  1  0
  5 13  1  0
  6 14  1  0
  7 15  1  0
  8 16  1  0
  8 17  1  0
  9 18  1  0
  9 19  1  0
M  END
