
     RDKit          3D

 19 22  0  0  0  0  0  0  0  0999 V2000
    2.0835    0.3781   -1.5750 O   0  0  0  0  0  0  0  0  0  0  0  0
    0.9986    0.1002   -0.7484 C   0  0  0  0  0  0  0  0  0  0  0  0
    1.2099   -0.7092    0.4893 C   0  0  0  0  0  0  0  0  0  0  0  0
    0.2254    0.2040    1.2145 C   0  0  0  0  0  0  0  0  0  0  0  0
   -1.2071   -0.1544    0.9637 C   0  0  0  0  0  0  0  0  0  0  0  0
   -1.5537   -1.1273   -0.1010 C   0  0  0  0  0  0  0  0  0  0  0  0
   -1.5411    0.3297   -0.4149 C   0  0  0  0  0  0  0  0  0  0  0  0
   -0.2315    0.8927   -0.9795 C   0  0  0  0  0  0  0  0  0  0  0  0
    0.5294    1.2489    0.1884 C   0  0  0  0  0  0  0  0  0  0  0  0
    2.6615   -0.4329   -1.6554 H   0  0  0  0  0  0  0  0  0  0  0  0
    2.2201   -0.5868    0.9762 H   0  0  0  0  0  0  0  0  0  0  0  0
    0.9447   -1.7642    0.4601 H   0  0  0  0  0  0  0  0  0  0  0  0
    0.4852    0.4730    2.2316 H   0  0  0  0  0  0  0  0  0  0  0  0
   -1.9586   -0.0044    1.7822 H   0  0  0  0  0  0  0  0  0  0  0  0
   -0.7780   -1.7191   -0.6314 H   0  0  0  0  0  0  0  0  0  0  0  0
   -2.5402   -1.6007   -0.1097 H   0  0  0  0  0  0  0  0  0  0  0  0
   -2.4700    0.8733   -0.5794 H   0  0  0  0  0  0  0  0  0  0  0  0
   -0.2616    1.5188   -1.8628 H   0  0  0  0  0  0  0  0  0  0  0  0
    1.1833    2.0802    0.3516 H   0  0  0  0  0  0  0  0  0  0  0  0
  1  2  1  0
  2  3  1  0
  3  4  1  0
  4  5  1  0
  5  6  1  0
  6  7  1  0
  7  8  1  0
  8  9  1  0
  8  2  1  0
  9  2  1  0
  9  4  1  0
  7  5  1  0
  1 10  1  0
  3 11  1  0
  3 12  1  0
  4 13  1  0
  5 14  1  0
  6 15  1  0
  6 16  1  0
  7 17  1  0
  8 18  1  0
  9 19  1  0
M  END
