
     RDKit          3D

 19 21  0  0  0  0  0  0  0  0999 V2000
    1.4451    1.5874   -0.3204 O   0  0  0  0  0  0  0  0  0  0  0  0
    0.9409    0.3202   -0.0947 C   0  0  0  0  0  0  0  0  0  0  0  0
    1.7898   -0.8166    0.2904 C   0  0  0  0  0  0  0  0  0  0  0  0
    1.2367   -0.6918   -1.1330 C   0  0  0  0  0  0  0  0  0  0  0  0
    0.0859   -1.3673   -1.4560 O   0  0  0  0  0  0  0  0  0  0  0  0
   -0.9975   -0.6065   -1.0521 C   0  0  0  0  0  0  0  0  0  0  0  0
   -0.5448    0.1880    0.1106 C   0  0  0  0  0  0  0  0  0  0  0  0
   -1.3261    1.1982    0.8022 C   0  0  0  0  0  0  0  0  0  0  0  0
   -1.1044   -0.1442    1.4503 C   0  0  0  0  0  0  0  0  0  0  0  0
    0.9191    2.0041   -1.0567 H   0  0  0  0  0  0  0  0  0  0  0  0
    1.3140   -1.5704    0.9625 H   0  0  0  0  0  0  0  0  0  0  0  0
    2.8820   -0.6763    0.4248 H   0  0  0  0  0  0  0  0  0  0  0  0
    1.9928   -0.5060   -1.9047 H   0  0  0  0  0  0  0  0  0  0  0  0
   -1.7880   -1.3409   -0.7168 H   0  0  0  0  0  0  0  0  0  0  0  0
   -1.4435   -0.0262   -1.8760 H   0  0  0  0  0  0  0  0  0  0  0  0
   -0.7416    2.0169    1.3125 H   0  0  0  0  0  0  0  0  0  0  0  0
   -2.3470    1.5125    0.5094 H   0  0  0  0  0  0  0  0  0  0  0  0
   -1.9623   -0.8208    1.4965 H   0  0  0  0  0  0  0  0  0  0  0  0
   -0.3511   -0.2603    2.2513 H   0  0  0  0  0  0  0  0  0  0  0  0
  1  2  1  0
  2  3  1  0
  3  4  1  0
  4  5  1  0
  5  6  1  0
  6  7  1  0
  7  8  1  0
  8  9  1  0
  4  2  1  0
  9  7  1  0
  7  2  1  0
  1 10  1  0
  3 11  1  0
  3 12  1  0
  4 13  1  0
  6 14  1  0
  6 15  1  0
  8 16  1  0
  8 17  1  0
  9 18  1  0
  9 19  1  0
M  END
