
     RDKit          3D

 21 23  0  0  0  0  0  0  0  0999 V2000
   -2.1878   -0.9692    1.0413 O   0  0  0  0  0  0  0  0  0  0  0  0
   -1.0509   -0.5079    0.4171 C   0  0  0  0  0  0  0  0  0  0  0  0
   -0.7613    0.9403    0.2842 C   0  0  0  0  0  0  0  0  0  0  0  0
    0.6445    1.3350    0.6297 C   0  0  0  0  0  0  0  0  0  0  0  0
    1.6592    0.4166    0.0035 C   0  0  0  0  0  0  0  0  0  0  0  0
    1.3383   -1.0241    0.1971 C   0  0  0  0  0  0  0  0  0  0  0  0
   -0.0525   -1.4125   -0.1873 C   0  0  0  0  0  0  0  0  0  0  0  0
   -0.9057   -0.6485   -1.0823 C   0  0  0  0  0  0  0  0  0  0  0  0
   -0.9282    0.8221   -1.2040 C   0  0  0  0  0  0  0  0  0  0  0  0
   -1.8817   -1.5726    1.7839 H   0  0  0  0  0  0  0  0  0  0  0  0
   -1.4902    1.5562    0.8180 H   0  0  0  0  0  0  0  0  0  0  0  0
    0.8122    2.3483    0.1599 H   0  0  0  0  0  0  0  0  0  0  0  0
    0.7982    1.4315    1.7056 H   0  0  0  0  0  0  0  0  0  0  0  0
    1.8667    0.6491   -1.0596 H   0  0  0  0  0  0  0  0  0  0  0  0
    2.6305    0.6139    0.5390 H   0  0  0  0  0  0  0  0  0  0  0  0
    1.4419   -1.2408    1.2994 H   0  0  0  0  0  0  0  0  0  0  0  0
    2.1098   -1.6225   -0.3330 H   0  0  0  0  0  0  0  0  0  0  0  0
   -0.2640   -2.4919   -0.0828 H   0  0  0  0  0  0  0  0  0  0  0  0
   -1.6790   -1.1893   -1.6576 H   0  0  0  0  0  0  0  0  0  0  0  0
   -1.9371    1.2376   -1.4873 H   0  0  0  0  0  0  0  0  0  0  0  0
   -0.1629    1.3289   -1.7850 H   0  0  0  0  0  0  0  0  0  0  0  0
  1  2  1  0
  2  3  1  0
  3  4  1  0
  4  5  1  0
  5  6  1  0
  6  7  1  0
  7  8  1  0
  8  9  1  0
  7  2  1  0
  8  2  1  0
  9  3  1  0
  1 10  1  0
  3 11  1  0
  4 12  1  0
  4 13  1  0
  5 14  1  0
  5 15  1  0
  6 16  1  0
  6 17  1  0
  7 18  1  0
  8 19  1  0
  9 20  1  0
  9 21  1  0
M  END
