
     RDKit          3D

 21 22  0  0  0  0  0  0  0  0999 V2000
    0.1933    2.3308   -0.0194 O   0  0  0  0  0  0  0  0  0  0  0  0
    0.1265    0.9693   -0.0532 C   0  0  0  0  0  0  0  0  0  0  0  0
    1.4559    0.2990   -0.2759 C   0  0  0  0  0  0  0  0  0  0  0  0
    1.3857   -1.1691   -0.1959 C   0  0  0  0  0  0  0  0  0  0  0  0
    0.3020   -1.7476    0.3346 O   0  0  0  0  0  0  0  0  0  0  0  0
   -0.7486   -1.0180    0.7320 C   0  0  0  0  0  0  0  0  0  0  0  0
   -1.6853   -0.6035   -0.4100 C   0  0  0  0  0  0  0  0  0  0  0  0
   -0.8296    0.4411   -1.1000 C   0  0  0  0  0  0  0  0  0  0  0  0
   -0.3900    0.3721    1.2643 C   0  0  0  0  0  0  0  0  0  0  0  0
    0.7587    2.6091    0.7224 H   0  0  0  0  0  0  0  0  0  0  0  0
    1.8423    0.6680   -1.2586 H   0  0  0  0  0  0  0  0  0  0  0  0
    2.1793    0.7206    0.4807 H   0  0  0  0  0  0  0  0  0  0  0  0
    2.2994   -1.5304    0.3646 H   0  0  0  0  0  0  0  0  0  0  0  0
    1.5445   -1.5821   -1.2366 H   0  0  0  0  0  0  0  0  0  0  0  0
   -1.3197   -1.5829    1.5120 H   0  0  0  0  0  0  0  0  0  0  0  0
   -2.5365   -0.0842    0.0836 H   0  0  0  0  0  0  0  0  0  0  0  0
   -1.9679   -1.4348   -1.0451 H   0  0  0  0  0  0  0  0  0  0  0  0
   -1.4225    1.2396   -1.5735 H   0  0  0  0  0  0  0  0  0  0  0  0
   -0.2686   -0.0558   -1.9388 H   0  0  0  0  0  0  0  0  0  0  0  0
   -1.3187    0.8436    1.5943 H   0  0  0  0  0  0  0  0  0  0  0  0
    0.4000    0.3150    2.0186 H   0  0  0  0  0  0  0  0  0  0  0  0
  1  2  1  0
  2  3  1  0
  3  4  1  0
  4  5  1  0
  5  6  1  0
  6  7  1  0
  7  8  1  0
  6  9  1  0
  8  2  1  0
  9  2  1  0
  1 10  1  0
  3 11  1  0
  3 12  1  0
  4 13  1  0
  4 14  1  0
  6 15  1  0
  7 16  1  0
  7 17  1  0
  8 18  1  0
  8 19  1  0
  9 20  1  0
  9 21  1  0
M  END
