
     RDKit          3D

 17 20  0  0  0  0  0  0  0  0999 V2000
   -1.3331    1.8112   -0.7575 O   0  0  0  0  0  0  0  0  0  0  0  0
   -0.6324    0.6835   -0.5310 C   0  0  0  0  0  0  0  0  0  0  0  0
    0.8579    0.7263   -0.5092 C   0  0  0  0  0  0  0  0  0  0  0  0
    1.6394    0.3060    0.6891 C   0  0  0  0  0  0  0  0  0  0  0  0
    1.1578   -0.7817   -0.1992 C   0  0  0  0  0  0  0  0  0  0  0  0
   -0.2578   -1.2859   -0.1117 C   0  0  0  0  0  0  0  0  0  0  0  0
   -1.0820   -0.2495    0.5536 C   0  0  0  0  0  0  0  0  0  0  0  0
   -2.1241   -0.6002   -0.2910 O   0  0  0  0  0  0  0  0  0  0  0  0
   -1.0575   -0.5937   -1.1707 C   0  0  0  0  0  0  0  0  0  0  0  0
   -1.6111    2.3187    0.0320 H   0  0  0  0  0  0  0  0  0  0  0  0
    1.3670    1.1140   -1.3958 H   0  0  0  0  0  0  0  0  0  0  0  0
    2.7182    0.5141    0.6386 H   0  0  0  0  0  0  0  0  0  0  0  0
    1.1722    0.5065    1.6625 H   0  0  0  0  0  0  0  0  0  0  0  0
    1.8398   -1.2920   -0.8819 H   0  0  0  0  0  0  0  0  0  0  0  0
   -0.4266   -2.3284    0.0802 H   0  0  0  0  0  0  0  0  0  0  0  0
   -1.1499   -0.0364    1.5380 H   0  0  0  0  0  0  0  0  0  0  0  0
   -1.0777   -0.8125   -2.1552 H   0  0  0  0  0  0  0  0  0  0  0  0
  1  2  1  0
  2  3  1  0
  3  4  1  0
  4  5  1  0
  5  6  1  0
  6  7  1  0
  7  8  1  0
  8  9  1  0
  7  2  1  0
  9  2  1  0
  5  3  1  0
  9  6  1  0
  1 10  1  0
  3 11  1  0
  4 12  1  0
  4 13  1  0
  5 14  1  0
  6 15  1  0
  7 16  1  0
  9 17  1  0
M  END
