
     RDKit          3D

 19 21  0  0  0  0  0  0  0  0999 V2000
   -1.4810    1.4731    0.8179 O   0  0  0  0  0  0  0  0  0  0  0  0
   -0.4343    0.6685    0.4505 C   0  0  0  0  0  0  0  0  0  0  0  0
    0.9323    1.1190    0.8347 C   0  0  0  0  0  0  0  0  0  0  0  0
    1.8742    0.7897   -0.1225 O   0  0  0  0  0  0  0  0  0  0  0  0
    1.7268   -0.5869   -0.3684 C   0  0  0  0  0  0  0  0  0  0  0  0
    0.3102   -0.9762   -0.5525 C   0  0  0  0  0  0  0  0  0  0  0  0
   -0.5682    0.1919   -0.9569 C   0  0  0  0  0  0  0  0  0  0  0  0
   -1.6875   -0.6748   -0.4561 C   0  0  0  0  0  0  0  0  0  0  0  0
   -0.6213   -0.8098    0.6033 C   0  0  0  0  0  0  0  0  0  0  0  0
   -1.3138    2.3761    0.4085 H   0  0  0  0  0  0  0  0  0  0  0  0
    0.9743    2.1860    1.1442 H   0  0  0  0  0  0  0  0  0  0  0  0
    1.2166    0.5441    1.7638 H   0  0  0  0  0  0  0  0  0  0  0  0
    2.2187   -1.1779    0.4231 H   0  0  0  0  0  0  0  0  0  0  0  0
    2.2695   -0.7798   -1.3152 H   0  0  0  0  0  0  0  0  0  0  0  0
    0.1400   -1.9157   -1.0715 H   0  0  0  0  0  0  0  0  0  0  0  0
   -0.5185    0.7049   -1.8085 H   0  0  0  0  0  0  0  0  0  0  0  0
   -2.6125   -0.1944   -0.1683 H   0  0  0  0  0  0  0  0  0  0  0  0
   -1.7528   -1.5938   -1.0721 H   0  0  0  0  0  0  0  0  0  0  0  0
   -0.6729   -1.3440    1.4464 H   0  0  0  0  0  0  0  0  0  0  0  0
  1  2  1  0
  2  3  1  0
  3  4  1  0
  4  5  1  0
  5  6  1  0
  6  7  1  0
  7  8  1  0
  8  9  1  0
  7  2  1  0
  9  2  1  0
  9  6  1  0
  1 10  1  0
  3 11  1  0
  3 12  1  0
  5 13  1  0
  5 14  1  0
  6 15  1  0
  7 16  1  0
  8 17  1  0
  8 18  1  0
  9 19  1  0
M  END
