
     RDKit          3D

 15 17  0  0  0  0  0  0  0  0999 V2000
    0.0931   -1.8362    1.2342 O   0  0  0  0  0  0  0  0  0  0  0  0
    0.3106   -0.8451    0.3006 C   0  0  0  0  0  0  0  0  0  0  0  0
    1.4903    0.0567    0.4493 C   0  0  0  0  0  0  0  0  0  0  0  0
    1.2348    1.2262   -0.1306 C   0  0  0  0  0  0  0  0  0  0  0  0
   -0.1545    1.1859   -0.7169 C   0  0  0  0  0  0  0  0  0  0  0  0
   -0.1414    0.3077   -1.8039 O   0  0  0  0  0  0  0  0  0  0  0  0
   -0.3548   -0.8131   -1.0016 C   0  0  0  0  0  0  0  0  0  0  0  0
   -0.7809    0.1048    0.0727 C   0  0  0  0  0  0  0  0  0  0  0  0
   -1.9761    0.1354    0.6615 O   0  0  0  0  0  0  0  0  0  0  0  0
   -0.3357   -2.6264    0.8382 H   0  0  0  0  0  0  0  0  0  0  0  0
    2.4335   -0.1505    0.9407 H   0  0  0  0  0  0  0  0  0  0  0  0
    1.8998    2.0722   -0.1817 H   0  0  0  0  0  0  0  0  0  0  0  0
   -0.6480    2.1331   -0.8424 H   0  0  0  0  0  0  0  0  0  0  0  0
   -1.0965   -1.5693   -1.3250 H   0  0  0  0  0  0  0  0  0  0  0  0
   -1.9741    0.6187    1.5049 H   0  0  0  0  0  0  0  0  0  0  0  0
  1  2  1  0
  2  3  1  0
  3  4  2  0
  4  5  1  0
  5  6  1  0
  6  7  1  0
  7  8  1  0
  8  9  1  0
  7  2  1  0
  8  2  1  0
  8  5  1  0
  1 10  1  0
  3 11  1  0
  4 12  1  0
  5 13  1  0
  7 14  1  0
  9 15  1  0
M  END
