
     RDKit          3D

 17 19  0  0  0  0  0  0  0  0999 V2000
    0.8458   -1.0114   -1.6453 O   0  0  0  0  0  0  0  0  0  0  0  0
    0.2670   -0.5109   -0.4920 C   0  0  0  0  0  0  0  0  0  0  0  0
   -1.0634   -1.0189   -0.1095 C   0  0  0  0  0  0  0  0  0  0  0  0
   -1.7426    0.1542    0.4950 C   0  0  0  0  0  0  0  0  0  0  0  0
   -1.0431    1.2641    0.2961 C   0  0  0  0  0  0  0  0  0  0  0  0
    0.2046    0.9977   -0.4689 C   0  0  0  0  0  0  0  0  0  0  0  0
    1.4267    0.9814    0.4187 C   0  0  0  0  0  0  0  0  0  0  0  0
    2.4949    0.1721    0.1602 O   0  0  0  0  0  0  0  0  0  0  0  0
    1.3147   -0.4115    0.5988 C   0  0  0  0  0  0  0  0  0  0  0  0
    0.7175   -1.9778   -1.7147 H   0  0  0  0  0  0  0  0  0  0  0  0
   -0.9524   -1.8599    0.6043 H   0  0  0  0  0  0  0  0  0  0  0  0
   -1.6081   -1.3337   -1.0201 H   0  0  0  0  0  0  0  0  0  0  0  0
   -2.6898    0.0420    1.0185 H   0  0  0  0  0  0  0  0  0  0  0  0
   -1.3377    2.2477    0.6448 H   0  0  0  0  0  0  0  0  0  0  0  0
    0.3059    1.5068   -1.4299 H   0  0  0  0  0  0  0  0  0  0  0  0
    1.5967    1.7773    1.1529 H   0  0  0  0  0  0  0  0  0  0  0  0
    1.2634   -1.0192    1.4912 H   0  0  0  0  0  0  0  0  0  0  0  0
  1  2  1  0
  2  3  1  0
  3  4  1  0
  4  5  2  0
  5  6  1  0
  6  7  1  0
  7  8  1  0
  8  9  1  0
  6  2  1  0
  9  7  1  0
  9  2  1  0
  1 10  1  0
  3 11  1  0
  3 12  1  0
  4 13  1  0
  5 14  1  0
  6 15  1  0
  7 16  1  0
  9 17  1  0
M  END
