
     RDKit          3D

 19 21  0  0  0  0  0  0  0  0999 V2000
   -1.1775   -0.7691   -1.1376 O   0  0  0  0  0  0  0  0  0  0  0  0
   -1.3074    0.1582   -0.1802 C   0  0  0  0  0  0  0  0  0  0  0  0
   -0.4302    1.2918   -0.4357 C   0  0  0  0  0  0  0  0  0  0  0  0
    0.4972    0.7926    0.6161 C   0  0  0  0  0  0  0  0  0  0  0  0
    1.7341    0.0848    0.3630 C   0  0  0  0  0  0  0  0  0  0  0  0
    1.9436   -1.2286   -0.3158 C   0  0  0  0  0  0  0  0  0  0  0  0
    2.3239   -0.0385   -0.8943 O   0  0  0  0  0  0  0  0  0  0  0  0
   -0.6943    0.2599    1.2257 C   0  0  0  0  0  0  0  0  0  0  0  0
   -1.7956   -0.5725    0.9585 C   0  0  0  0  0  0  0  0  0  0  0  0
   -2.0666   -0.9638   -1.5279 H   0  0  0  0  0  0  0  0  0  0  0  0
   -0.8912    2.2981   -0.2822 H   0  0  0  0  0  0  0  0  0  0  0  0
    0.1057    1.3436   -1.4014 H   0  0  0  0  0  0  0  0  0  0  0  0
    0.8352    1.7839    1.1329 H   0  0  0  0  0  0  0  0  0  0  0  0
    2.5881    0.2733    1.1078 H   0  0  0  0  0  0  0  0  0  0  0  0
    2.8329   -1.8689    0.0076 H   0  0  0  0  0  0  0  0  0  0  0  0
    1.1511   -1.8651   -0.6869 H   0  0  0  0  0  0  0  0  0  0  0  0
   -1.1502    1.0766    1.9098 H   0  0  0  0  0  0  0  0  0  0  0  0
   -1.6073   -1.6630    1.2069 H   0  0  0  0  0  0  0  0  0  0  0  0
   -2.8916   -0.3932    1.1448 H   0  0  0  0  0  0  0  0  0  0  0  0
  1  2  1  0
  2  3  1  0
  3  4  1  0
  4  5  1  0
  5  6  1  0
  6  7  1  0
  4  8  1  0
  8  9  1  0
  8  2  1  0
  9  2  1  0
  7  5  1  0
  1 10  1  0
  3 11  1  0
  3 12  1  0
  4 13  1  0
  5 14  1  0
  6 15  1  0
  6 16  1  0
  8 17  1  0
  9 18  1  0
  9 19  1  0
M  END
