
     RDKit          3D

 19 21  0  0  0  0  0  0  0  0999 V2000
   -1.2432    0.9506    1.1521 O   0  0  0  0  0  0  0  0  0  0  0  0
   -1.2568    0.4135   -0.1660 C   0  0  0  0  0  0  0  0  0  0  0  0
   -0.4635    1.2607   -1.0253 C   0  0  0  0  0  0  0  0  0  0  0  0
    0.8156    1.3015   -0.6611 C   0  0  0  0  0  0  0  0  0  0  0  0
    1.2790    0.5205    0.5236 C   0  0  0  0  0  0  0  0  0  0  0  0
    2.0142   -0.7176    0.2782 C   0  0  0  0  0  0  0  0  0  0  0  0
    0.5832   -0.8421    0.6635 C   0  0  0  0  0  0  0  0  0  0  0  0
   -0.4623   -0.9364   -0.3426 C   0  0  0  0  0  0  0  0  0  0  0  0
   -1.8797   -0.8401   -0.3029 C   0  0  0  0  0  0  0  0  0  0  0  0
   -2.1459    0.8405    1.5375 H   0  0  0  0  0  0  0  0  0  0  0  0
   -0.7811    1.8207   -1.8685 H   0  0  0  0  0  0  0  0  0  0  0  0
    1.5767    1.8945   -1.1966 H   0  0  0  0  0  0  0  0  0  0  0  0
    1.5004    1.0723    1.4603 H   0  0  0  0  0  0  0  0  0  0  0  0
    2.7766   -1.0801    1.0210 H   0  0  0  0  0  0  0  0  0  0  0  0
    2.2465   -1.0032   -0.7693 H   0  0  0  0  0  0  0  0  0  0  0  0
    0.3543   -1.1748    1.7116 H   0  0  0  0  0  0  0  0  0  0  0  0
   -0.0346   -1.1366   -1.3722 H   0  0  0  0  0  0  0  0  0  0  0  0
   -2.4083   -1.2832    0.5784 H   0  0  0  0  0  0  0  0  0  0  0  0
   -2.4712   -1.0608   -1.2219 H   0  0  0  0  0  0  0  0  0  0  0  0
  1  2  1  0
  2  3  1  0
  3  4  2  0
  4  5  1  0
  5  6  1  0
  6  7  1  0
  7  8  1  0
  8  9  1  0
  8  2  1  0
  9  2  1  0
  7  5  1  0
  1 10  1  0
  3 11  1  0
  4 12  1  0
  5 13  1  0
  6 14  1  0
  6 15  1  0
  7 16  1  0
  8 17  1  0
  9 18  1  0
  9 19  1  0
M  END
