
     RDKit          3D

 17 20  0  0  0  0  0  0  0  0999 V2000
    2.5737   -0.1831   -0.0422 O   0  0  0  0  0  0  0  0  0  0  0  0
    1.2093   -0.2284    0.0839 C   0  0  0  0  0  0  0  0  0  0  0  0
    0.6020   -1.3747    0.7726 C   0  0  0  0  0  0  0  0  0  0  0  0
   -0.7016   -1.4805    0.8774 C   0  0  0  0  0  0  0  0  0  0  0  0
   -1.5446   -0.3384    0.4589 C   0  0  0  0  0  0  0  0  0  0  0  0
   -0.9232    0.9814    0.5464 C   0  0  0  0  0  0  0  0  0  0  0  0
   -1.0762    0.2843   -0.7774 C   0  0  0  0  0  0  0  0  0  0  0  0
    0.3853    0.3207   -0.9984 C   0  0  0  0  0  0  0  0  0  0  0  0
    0.5328    1.0581    0.3287 C   0  0  0  0  0  0  0  0  0  0  0  0
    2.9341    0.4868    0.6192 H   0  0  0  0  0  0  0  0  0  0  0  0
    1.2471   -2.1351    1.1947 H   0  0  0  0  0  0  0  0  0  0  0  0
   -1.2033   -2.3646    1.2567 H   0  0  0  0  0  0  0  0  0  0  0  0
   -2.6283   -0.3931    0.6126 H   0  0  0  0  0  0  0  0  0  0  0  0
   -1.4650    1.8972    0.7788 H   0  0  0  0  0  0  0  0  0  0  0  0
   -1.7320    0.6943   -1.5511 H   0  0  0  0  0  0  0  0  0  0  0  0
    0.7669    0.7551   -1.9140 H   0  0  0  0  0  0  0  0  0  0  0  0
    1.0230    2.0201    0.3567 H   0  0  0  0  0  0  0  0  0  0  0  0
  1  2  1  0
  2  3  1  0
  3  4  2  0
  4  5  1  0
  5  6  1  0
  6  7  1  0
  7  8  1  0
  8  9  1  0
  8  2  1  0
  9  2  1  0
  7  5  1  0
  9  6  1  0
  1 10  1  0
  3 11  1  0
  4 12  1  0
  5 13  1  0
  6 14  1  0
  7 15  1  0
  8 16  1  0
  9 17  1  0
M  END
