
     RDKit          3D

 21 22  0  0  0  0  0  0  0  0999 V2000
   -2.5387   -0.1782    0.2171 O   0  0  0  0  0  0  0  0  0  0  0  0
   -1.1676   -0.1290   -0.0166 C   0  0  0  0  0  0  0  0  0  0  0  0
   -0.6759   -1.3917   -0.6321 C   0  0  0  0  0  0  0  0  0  0  0  0
    0.6026   -1.3579   -1.1086 O   0  0  0  0  0  0  0  0  0  0  0  0
    1.5662   -0.9871   -0.2188 C   0  0  0  0  0  0  0  0  0  0  0  0
    1.6337    0.5213   -0.1816 C   0  0  0  0  0  0  0  0  0  0  0  0
    0.4255    1.1684    0.3849 C   0  0  0  0  0  0  0  0  0  0  0  0
   -0.4368    0.2755    1.2214 C   0  0  0  0  0  0  0  0  0  0  0  0
   -0.6716    1.1205   -0.6876 C   0  0  0  0  0  0  0  0  0  0  0  0
   -2.7782    0.2426    1.0954 H   0  0  0  0  0  0  0  0  0  0  0  0
   -0.8160   -2.2098    0.1226 H   0  0  0  0  0  0  0  0  0  0  0  0
   -1.3515   -1.6410   -1.4837 H   0  0  0  0  0  0  0  0  0  0  0  0
    2.5590   -1.3168   -0.6503 H   0  0  0  0  0  0  0  0  0  0  0  0
    1.5103   -1.4523    0.7713 H   0  0  0  0  0  0  0  0  0  0  0  0
    2.5778    0.8816    0.2751 H   0  0  0  0  0  0  0  0  0  0  0  0
    1.6972    0.8477   -1.2621 H   0  0  0  0  0  0  0  0  0  0  0  0
    0.5697    2.1817    0.7440 H   0  0  0  0  0  0  0  0  0  0  0  0
   -1.0787    0.9103    1.8963 H   0  0  0  0  0  0  0  0  0  0  0  0
    0.0433   -0.4942    1.8159 H   0  0  0  0  0  0  0  0  0  0  0  0
   -0.2982    1.0348   -1.7043 H   0  0  0  0  0  0  0  0  0  0  0  0
   -1.3720    1.9737   -0.5983 H   0  0  0  0  0  0  0  0  0  0  0  0
  1  2  1  0
  2  3  1  0
  3  4  1  0
  4  5  1  0
  5  6  1  0
  6  7  1  0
  7  8  1  0
  7  9  1  0
  8  2  1  0
  9  2  1  0
  1 10  1  0
  3 11  1  0
  3 12  1  0
  5 13  1  0
  5 14  1  0
  6 15  1  0
  6 16  1  0
  7 17  1  0
  8 18  1  0
  8 19  1  0
  9 20  1  0
  9 21  1  0
M  END
