
     RDKit          3D

 17 19  0  0  0  0  0  0  0  0999 V2000
    1.5709    1.0557   -1.2935 O   0  0  0  0  0  0  0  0  0  0  0  0
    0.6941    0.5264   -0.3701 C   0  0  0  0  0  0  0  0  0  0  0  0
    1.1789    0.1581    0.9693 C   0  0  0  0  0  0  0  0  0  0  0  0
    0.9374   -0.9635    0.0423 C   0  0  0  0  0  0  0  0  0  0  0  0
   -0.5024   -1.4634   -0.0351 C   0  0  0  0  0  0  0  0  0  0  0  0
   -1.2637   -0.8526    0.9499 O   0  0  0  0  0  0  0  0  0  0  0  0
   -1.5931    0.4198    0.4879 C   0  0  0  0  0  0  0  0  0  0  0  0
   -0.7354    0.5053   -0.7673 C   0  0  0  0  0  0  0  0  0  0  0  0
   -0.8975   -0.8219   -1.2357 O   0  0  0  0  0  0  0  0  0  0  0  0
    1.8210    1.9941   -1.1258 H   0  0  0  0  0  0  0  0  0  0  0  0
    0.5324    0.1775    1.8727 H   0  0  0  0  0  0  0  0  0  0  0  0
    2.2249    0.4564    1.2025 H   0  0  0  0  0  0  0  0  0  0  0  0
    1.7242   -1.4978   -0.4870 H   0  0  0  0  0  0  0  0  0  0  0  0
   -0.5861   -2.5396   -0.0838 H   0  0  0  0  0  0  0  0  0  0  0  0
   -2.6619    0.3740    0.1581 H   0  0  0  0  0  0  0  0  0  0  0  0
   -1.3823    1.2214    1.1904 H   0  0  0  0  0  0  0  0  0  0  0  0
   -1.0614    1.2501   -1.4749 H   0  0  0  0  0  0  0  0  0  0  0  0
  1  2  1  0
  2  3  1  0
  3  4  1  0
  4  5  1  0
  5  6  1  0
  6  7  1  0
  7  8  1  0
  8  9  1  0
  4  2  1  0
  9  5  1  0
  8  2  1  0
  1 10  1  0
  3 11  1  0
  3 12  1  0
  4 13  1  0
  5 14  1  0
  7 15  1  0
  7 16  1  0
  8 17  1  0
M  END
