
     RDKit          3D

 19 21  0  0  0  0  0  0  0  0999 V2000
   -1.2025    0.6860    1.9816 O   0  0  0  0  0  0  0  0  0  0  0  0
   -0.6662    0.3295    0.7227 C   0  0  0  0  0  0  0  0  0  0  0  0
   -1.5420    0.4836   -0.4316 C   0  0  0  0  0  0  0  0  0  0  0  0
   -1.1301   -0.8880    0.0323 C   0  0  0  0  0  0  0  0  0  0  0  0
    0.0172   -1.4829   -0.7355 C   0  0  0  0  0  0  0  0  0  0  0  0
    1.2425   -0.8683   -0.1285 C   0  0  0  0  0  0  0  0  0  0  0  0
    1.9027   -0.0074   -1.0009 O   0  0  0  0  0  0  0  0  0  0  0  0
    1.4849    1.1733   -0.3571 C   0  0  0  0  0  0  0  0  0  0  0  0
    0.8098    0.3257    0.6698 C   0  0  0  0  0  0  0  0  0  0  0  0
   -1.6725    1.5591    1.8022 H   0  0  0  0  0  0  0  0  0  0  0  0
   -1.2107    0.8423   -1.4258 H   0  0  0  0  0  0  0  0  0  0  0  0
   -2.6086    0.7228   -0.2331 H   0  0  0  0  0  0  0  0  0  0  0  0
   -1.8576   -1.5422    0.5354 H   0  0  0  0  0  0  0  0  0  0  0  0
   -0.0831   -1.1455   -1.8008 H   0  0  0  0  0  0  0  0  0  0  0  0
    0.0543   -2.5765   -0.7191 H   0  0  0  0  0  0  0  0  0  0  0  0
    1.8947   -1.5377    0.4585 H   0  0  0  0  0  0  0  0  0  0  0  0
    2.4118    1.7086   -0.0216 H   0  0  0  0  0  0  0  0  0  0  0  0
    0.8456    1.8072   -0.9904 H   0  0  0  0  0  0  0  0  0  0  0  0
    1.3098    0.4105    1.6417 H   0  0  0  0  0  0  0  0  0  0  0  0
  1  2  1  0
  2  3  1  0
  3  4  1  0
  4  5  1  0
  5  6  1  0
  6  7  1  0
  7  8  1  0
  8  9  1  0
  4  2  1  0
  9  6  1  0
  9  2  1  0
  1 10  1  0
  3 11  1  0
  3 12  1  0
  4 13  1  0
  5 14  1  0
  5 15  1  0
  6 16  1  0
  8 17  1  0
  8 18  1  0
  9 19  1  0
M  END
