
     RDKit          3D

 17 19  0  0  0  0  0  0  0  0999 V2000
    1.3731    0.4801    1.6544 O   0  0  0  0  0  0  0  0  0  0  0  0
    0.6708    0.1888    0.5190 C   0  0  0  0  0  0  0  0  0  0  0  0
    0.2363    1.3784   -0.2441 C   0  0  0  0  0  0  0  0  0  0  0  0
   -0.9905    1.2258   -0.7057 C   0  0  0  0  0  0  0  0  0  0  0  0
   -1.5084   -0.0993   -0.2922 C   0  0  0  0  0  0  0  0  0  0  0  0
   -0.7683   -1.3436   -0.4636 C   0  0  0  0  0  0  0  0  0  0  0  0
    0.4234   -1.4352   -1.1285 O   0  0  0  0  0  0  0  0  0  0  0  0
    1.3909   -0.7171   -0.4398 C   0  0  0  0  0  0  0  0  0  0  0  0
   -0.5925   -0.5539    0.7769 C   0  0  0  0  0  0  0  0  0  0  0  0
    1.2488    1.4246    1.9096 H   0  0  0  0  0  0  0  0  0  0  0  0
    0.8526    2.2539   -0.3971 H   0  0  0  0  0  0  0  0  0  0  0  0
   -1.5224    1.9788   -1.3011 H   0  0  0  0  0  0  0  0  0  0  0  0
   -2.5978   -0.1251   -0.0895 H   0  0  0  0  0  0  0  0  0  0  0  0
   -1.3686   -2.2857   -0.4789 H   0  0  0  0  0  0  0  0  0  0  0  0
    1.9708   -0.1510   -1.2045 H   0  0  0  0  0  0  0  0  0  0  0  0
    2.0916   -1.3390    0.1248 H   0  0  0  0  0  0  0  0  0  0  0  0
   -0.9100   -0.8805    1.7603 H   0  0  0  0  0  0  0  0  0  0  0  0
  1  2  1  0
  2  3  1  0
  3  4  2  0
  4  5  1  0
  5  6  1  0
  6  7  1  0
  7  8  1  0
  6  9  1  0
  8  2  1  0
  9  2  1  0
  9  5  1  0
  1 10  1  0
  3 11  1  0
  4 12  1  0
  5 13  1  0
  6 14  1  0
  8 15  1  0
  8 16  1  0
  9 17  1  0
M  END
