
     RDKit          3D

 17 19  0  0  0  0  0  0  0  0999 V2000
   -0.1918    1.4615    1.7623 O   0  0  0  0  0  0  0  0  0  0  0  0
    0.0924    0.6500    0.7595 C   0  0  0  0  0  0  0  0  0  0  0  0
   -0.7462   -0.6278    0.5842 C   0  0  0  0  0  0  0  0  0  0  0  0
   -0.2372   -0.5167   -0.8637 C   0  0  0  0  0  0  0  0  0  0  0  0
   -0.9388   -1.1141   -1.8210 O   0  0  0  0  0  0  0  0  0  0  0  0
   -0.4166    0.9842   -0.6432 C   0  0  0  0  0  0  0  0  0  0  0  0
    1.2133   -0.7641   -0.6785 C   0  0  0  0  0  0  0  0  0  0  0  0
    1.6655   -1.2912    0.5692 O   0  0  0  0  0  0  0  0  0  0  0  0
    1.4810    0.1018    0.5658 C   0  0  0  0  0  0  0  0  0  0  0  0
   -0.9010    1.2004    2.3968 H   0  0  0  0  0  0  0  0  0  0  0  0
   -1.8107   -0.4128    0.6915 H   0  0  0  0  0  0  0  0  0  0  0  0
   -0.3385   -1.5065    1.1022 H   0  0  0  0  0  0  0  0  0  0  0  0
   -1.8940   -1.0153   -1.6916 H   0  0  0  0  0  0  0  0  0  0  0  0
    0.2283    1.6296   -1.2314 H   0  0  0  0  0  0  0  0  0  0  0  0
   -1.4946    1.2451   -0.5930 H   0  0  0  0  0  0  0  0  0  0  0  0
    1.9367   -0.7809   -1.4802 H   0  0  0  0  0  0  0  0  0  0  0  0
    2.3524    0.7567    0.5711 H   0  0  0  0  0  0  0  0  0  0  0  0
  1  2  1  0
  2  3  1  0
  3  4  1  0
  4  5  1  0
  4  6  1  0
  4  7  1  0
  7  8  1  0
  8  9  1  0
  6  2  1  0
  9  7  1  0
  9  2  1  0
  1 10  1  0
  3 11  1  0
  3 12  1  0
  5 13  1  0
  6 14  1  0
  6 15  1  0
  7 16  1  0
  9 17  1  0
M  END
