
     RDKit          3D

 19 21  0  0  0  0  0  0  0  0999 V2000
   -0.3582    0.8511    2.2099 O   0  0  0  0  0  0  0  0  0  0  0  0
   -0.2440    0.5673    0.8939 C   0  0  0  0  0  0  0  0  0  0  0  0
   -0.5984   -0.8151    0.4131 C   0  0  0  0  0  0  0  0  0  0  0  0
    0.7838   -1.3532    0.0219 C   0  0  0  0  0  0  0  0  0  0  0  0
    1.2801   -0.1812   -0.8259 C   0  0  0  0  0  0  0  0  0  0  0  0
    0.8196    1.0031   -0.0023 C   0  0  0  0  0  0  0  0  0  0  0  0
   -0.5825    1.4491   -0.2128 C   0  0  0  0  0  0  0  0  0  0  0  0
   -1.4479    0.8016   -1.0413 O   0  0  0  0  0  0  0  0  0  0  0  0
   -1.4116   -0.5413   -0.8067 C   0  0  0  0  0  0  0  0  0  0  0  0
    0.1597    1.5999    2.5472 H   0  0  0  0  0  0  0  0  0  0  0  0
   -1.0808   -1.4169    1.1783 H   0  0  0  0  0  0  0  0  0  0  0  0
    1.4504   -1.3980    0.8965 H   0  0  0  0  0  0  0  0  0  0  0  0
    0.7129   -2.2824   -0.5432 H   0  0  0  0  0  0  0  0  0  0  0  0
    2.3774   -0.2659   -0.8832 H   0  0  0  0  0  0  0  0  0  0  0  0
    0.8483   -0.2265   -1.8201 H   0  0  0  0  0  0  0  0  0  0  0  0
    1.5537    1.7234    0.3625 H   0  0  0  0  0  0  0  0  0  0  0  0
   -0.8280    2.5388   -0.0522 H   0  0  0  0  0  0  0  0  0  0  0  0
   -2.4282   -0.9815   -0.6375 H   0  0  0  0  0  0  0  0  0  0  0  0
   -1.0064   -1.0723   -1.6982 H   0  0  0  0  0  0  0  0  0  0  0  0
  1  2  1  0
  2  3  1  0
  3  4  1  0
  4  5  1  0
  5  6  1  0
  6  7  1  0
  7  8  1  0
  8  9  1  0
  6  2  1  0
  7  2  1  0
  9  3  1  0
  1 10  1  0
  3 11  1  0
  4 12  1  0
  4 13  1  0
  5 14  1  0
  5 15  1  0
  6 16  1  0
  7 17  1  0
  9 18  1  0
  9 19  1  0
M  END
