
     RDKit          3D

 17 19  0  0  0  0  0  0  0  0999 V2000
   -0.2414   -1.7670   -0.8426 O   0  0  0  0  0  0  0  0  0  0  0  0
   -0.4464   -0.5600   -0.3471 C   0  0  0  0  0  0  0  0  0  0  0  0
   -1.8023    0.0008   -0.1246 C   0  0  0  0  0  0  0  0  0  0  0  0
   -1.4735    1.2705    0.4168 O   0  0  0  0  0  0  0  0  0  0  0  0
   -0.1101    1.2861    0.3467 C   0  0  0  0  0  0  0  0  0  0  0  0
    0.3137   -0.0865    0.8689 C   0  0  0  0  0  0  0  0  0  0  0  0
    1.7184   -0.1779    0.4097 C   0  0  0  0  0  0  0  0  0  0  0  0
    1.6194    0.3760   -0.8921 O   0  0  0  0  0  0  0  0  0  0  0  0
    0.2787    0.6339   -0.9880 C   0  0  0  0  0  0  0  0  0  0  0  0
    0.1392   -2.3789   -0.1467 H   0  0  0  0  0  0  0  0  0  0  0  0
   -2.4367   -0.5773    0.5679 H   0  0  0  0  0  0  0  0  0  0  0  0
   -2.2875    0.1260   -1.1319 H   0  0  0  0  0  0  0  0  0  0  0  0
    0.4576    2.1291    0.6575 H   0  0  0  0  0  0  0  0  0  0  0  0
    0.0044   -0.3772    1.8340 H   0  0  0  0  0  0  0  0  0  0  0  0
    1.9510   -1.2651    0.2221 H   0  0  0  0  0  0  0  0  0  0  0  0
    2.4642    0.3253    1.0198 H   0  0  0  0  0  0  0  0  0  0  0  0
   -0.1486    1.0422   -1.8702 H   0  0  0  0  0  0  0  0  0  0  0  0
  1  2  1  0
  2  3  1  0
  3  4  1  0
  4  5  1  0
  5  6  1  0
  6  7  1  0
  7  8  1  0
  8  9  1  0
  6  2  1  0
  9  2  1  0
  9  5  1  0
  1 10  1  0
  3 11  1  0
  3 12  1  0
  5 13  1  0
  6 14  1  0
  7 15  1  0
  7 16  1  0
  9 17  1  0
M  END
