
     RDKit          3D

 19 21  0  0  0  0  0  0  0  0999 V2000
    0.7300   -0.3524   -1.5680 O   0  0  0  0  0  0  0  0  0  0  0  0
    0.4829   -0.3837   -0.1743 C   0  0  0  0  0  0  0  0  0  0  0  0
    1.7333   -0.3869    0.6067 C   0  0  0  0  0  0  0  0  0  0  0  0
    1.8107    1.0921    0.0130 C   0  0  0  0  0  0  0  0  0  0  0  0
    0.3646    1.0661    0.3569 C   0  0  0  0  0  0  0  0  0  0  0  0
   -0.8635    1.2751    0.7434 C   0  0  0  0  0  0  0  0  0  0  0  0
   -1.7131    0.0749    0.5656 C   0  0  0  0  0  0  0  0  0  0  0  0
   -1.9234   -0.5043   -0.7632 C   0  0  0  0  0  0  0  0  0  0  0  0
   -0.7851   -1.0176    0.1687 C   0  0  0  0  0  0  0  0  0  0  0  0
    0.5037   -1.2332   -1.9368 H   0  0  0  0  0  0  0  0  0  0  0  0
    2.5956   -0.9522    0.2340 H   0  0  0  0  0  0  0  0  0  0  0  0
    1.6101   -0.3011    1.6924 H   0  0  0  0  0  0  0  0  0  0  0  0
    2.4624    1.7230    0.6055 H   0  0  0  0  0  0  0  0  0  0  0  0
    1.9711    1.0507   -1.0634 H   0  0  0  0  0  0  0  0  0  0  0  0
   -1.2401    2.2269    1.1557 H   0  0  0  0  0  0  0  0  0  0  0  0
   -2.4172   -0.1619    1.4059 H   0  0  0  0  0  0  0  0  0  0  0  0
   -2.7910   -1.1954   -0.8694 H   0  0  0  0  0  0  0  0  0  0  0  0
   -1.6411    0.0244   -1.6862 H   0  0  0  0  0  0  0  0  0  0  0  0
   -0.8900   -2.0444    0.5133 H   0  0  0  0  0  0  0  0  0  0  0  0
  1  2  1  0
  2  3  1  0
  3  4  1  0
  4  5  1  0
  5  6  2  0
  6  7  1  0
  7  8  1  0
  8  9  1  0
  5  2  1  0
  9  7  1  0
  9  2  1  0
  1 10  1  0
  3 11  1  0
  3 12  1  0
  4 13  1  0
  4 14  1  0
  6 15  1  0
  7 16  1  0
  8 17  1  0
  8 18  1  0
  9 19  1  0
M  END
