
     RDKit          3D

 19 21  0  0  0  0  0  0  0  0999 V2000
    2.3113    0.1556   -0.8594 O   0  0  0  0  0  0  0  0  0  0  0  0
    1.0960   -0.0957   -0.1992 C   0  0  0  0  0  0  0  0  0  0  0  0
    0.4903    1.0504    0.5149 C   0  0  0  0  0  0  0  0  0  0  0  0
   -0.8939    1.4056    0.1135 C   0  0  0  0  0  0  0  0  0  0  0  0
   -1.7874    0.2542   -0.1625 C   0  0  0  0  0  0  0  0  0  0  0  0
   -1.7532   -0.7450    0.8267 O   0  0  0  0  0  0  0  0  0  0  0  0
   -1.2322   -1.0113   -0.4365 C   0  0  0  0  0  0  0  0  0  0  0  0
    0.2330   -1.1749   -0.6254 C   0  0  0  0  0  0  0  0  0  0  0  0
    1.0833   -1.4418    0.5595 C   0  0  0  0  0  0  0  0  0  0  0  0
    2.4727    1.1286   -0.8926 H   0  0  0  0  0  0  0  0  0  0  0  0
    0.5329    0.8347    1.6147 H   0  0  0  0  0  0  0  0  0  0  0  0
    1.1263    1.9715    0.3921 H   0  0  0  0  0  0  0  0  0  0  0  0
   -0.8998    2.1386   -0.7375 H   0  0  0  0  0  0  0  0  0  0  0  0
   -1.3521    1.9837    0.9713 H   0  0  0  0  0  0  0  0  0  0  0  0
   -2.7802    0.5358   -0.5875 H   0  0  0  0  0  0  0  0  0  0  0  0
   -1.8690   -1.7575   -0.9941 H   0  0  0  0  0  0  0  0  0  0  0  0
    0.5501   -1.7372   -1.5471 H   0  0  0  0  0  0  0  0  0  0  0  0
    0.6937   -1.4073    1.5900 H   0  0  0  0  0  0  0  0  0  0  0  0
    1.9780   -2.0876    0.4590 H   0  0  0  0  0  0  0  0  0  0  0  0
  1  2  1  0
  2  3  1  0
  3  4  1  0
  4  5  1  0
  5  6  1  0
  6  7  1  0
  7  8  1  0
  8  9  1  0
  8  2  1  0
  9  2  1  0
  7  5  1  0
  1 10  1  0
  3 11  1  0
  3 12  1  0
  4 13  1  0
  4 14  1  0
  5 15  1  0
  7 16  1  0
  8 17  1  0
  9 18  1  0
  9 19  1  0
M  END
