
     RDKit          3D

 19 21  0  0  0  0  0  0  0  0999 V2000
   -2.2437   -1.1372   -0.3363 O   0  0  0  0  0  0  0  0  0  0  0  0
   -0.9837   -0.6622    0.0143 C   0  0  0  0  0  0  0  0  0  0  0  0
   -0.9725    0.5559    0.8885 C   0  0  0  0  0  0  0  0  0  0  0  0
   -0.1148    1.5907    0.1686 C   0  0  0  0  0  0  0  0  0  0  0  0
    0.8636    0.6655   -0.5624 C   0  0  0  0  0  0  0  0  0  0  0  0
    1.6529   -0.0500    0.4954 C   0  0  0  0  0  0  0  0  0  0  0  0
    1.3873   -1.3890    0.3875 O   0  0  0  0  0  0  0  0  0  0  0  0
    0.1341   -1.5846   -0.0880 C   0  0  0  0  0  0  0  0  0  0  0  0
   -0.0451   -0.4079   -1.0613 C   0  0  0  0  0  0  0  0  0  0  0  0
   -2.1886   -1.7261   -1.1418 H   0  0  0  0  0  0  0  0  0  0  0  0
   -0.6430    0.3769    1.9178 H   0  0  0  0  0  0  0  0  0  0  0  0
   -1.9981    0.9937    0.9565 H   0  0  0  0  0  0  0  0  0  0  0  0
   -0.6865    2.2181   -0.5168 H   0  0  0  0  0  0  0  0  0  0  0  0
    0.4782    2.2000    0.8812 H   0  0  0  0  0  0  0  0  0  0  0  0
    1.4510    1.1794   -1.3120 H   0  0  0  0  0  0  0  0  0  0  0  0
    2.7354    0.1872    0.3763 H   0  0  0  0  0  0  0  0  0  0  0  0
    1.3799    0.2634    1.5327 H   0  0  0  0  0  0  0  0  0  0  0  0
   -0.0680   -2.5926   -0.5019 H   0  0  0  0  0  0  0  0  0  0  0  0
   -0.1383   -0.6811   -2.0981 H   0  0  0  0  0  0  0  0  0  0  0  0
  1  2  1  0
  2  3  1  0
  3  4  1  0
  4  5  1  0
  5  6  1  0
  6  7  1  0
  7  8  1  0
  8  9  1  0
  8  2  1  0
  9  2  1  0
  9  5  1  0
  1 10  1  0
  3 11  1  0
  3 12  1  0
  4 13  1  0
  4 14  1  0
  5 15  1  0
  6 16  1  0
  6 17  1  0
  8 18  1  0
  9 19  1  0
M  END
