
     RDKit          3D

 17 19  0  0  0  0  0  0  0  0999 V2000
   -0.5233   -1.3623    1.1787 O   0  0  0  0  0  0  0  0  0  0  0  0
   -0.2468   -0.6171   -0.0020 C   0  0  0  0  0  0  0  0  0  0  0  0
   -1.4889   -0.2311   -0.6657 C   0  0  0  0  0  0  0  0  0  0  0  0
   -1.6503    0.8072    0.5270 C   0  0  0  0  0  0  0  0  0  0  0  0
   -0.1313    0.8728    0.3550 C   0  0  0  0  0  0  0  0  0  0  0  0
    1.1170    1.2171    0.2616 C   0  0  0  0  0  0  0  0  0  0  0  0
    2.0441    0.1492   -0.1629 C   0  0  0  0  0  0  0  0  0  0  0  0
    2.0831   -1.1126    0.3107 O   0  0  0  0  0  0  0  0  0  0  0  0
    1.0373   -0.9231   -0.6221 C   0  0  0  0  0  0  0  0  0  0  0  0
    0.3645   -1.5437    1.5772 H   0  0  0  0  0  0  0  0  0  0  0  0
   -2.3562   -0.9022   -0.6301 H   0  0  0  0  0  0  0  0  0  0  0  0
   -1.4063    0.2843   -1.6202 H   0  0  0  0  0  0  0  0  0  0  0  0
   -2.0046    0.3655    1.4309 H   0  0  0  0  0  0  0  0  0  0  0  0
   -2.1881    1.6948    0.1931 H   0  0  0  0  0  0  0  0  0  0  0  0
    1.4326    2.2755    0.4986 H   0  0  0  0  0  0  0  0  0  0  0  0
    2.7446    0.4211   -1.0232 H   0  0  0  0  0  0  0  0  0  0  0  0
    1.1728   -1.3953   -1.6064 H   0  0  0  0  0  0  0  0  0  0  0  0
  1  2  1  0
  2  3  1  0
  3  4  1  0
  4  5  1  0
  5  6  2  0
  6  7  1  0
  7  8  1  0
  8  9  1  0
  5  2  1  0
  9  7  1  0
  9  2  1  0
  1 10  1  0
  3 11  1  0
  3 12  1  0
  4 13  1  0
  4 14  1  0
  6 15  1  0
  7 16  1  0
  9 17  1  0
M  END
