
     RDKit          3D

 18 20  0  0  0  0  0  0  0  0999 V2000
   -2.1631    0.9381    0.6319 O   0  0  0  0  0  0  0  0  0  0  0  0
   -0.9255    0.5013    0.3446 C   0  0  0  0  0  0  0  0  0  0  0  0
    0.0031    1.2321   -0.5868 C   0  0  0  0  0  0  0  0  0  0  0  0
    1.0373    0.1300   -0.7885 C   0  0  0  0  0  0  0  0  0  0  0  0
    0.1046   -1.0014   -1.1367 C   0  0  0  0  0  0  0  0  0  0  0  0
   -0.7777   -0.9726    0.0919 C   0  0  0  0  0  0  0  0  0  0  0  0
   -0.0630   -0.3214    1.1903 C   0  0  0  0  0  0  0  0  0  0  0  0
    1.3637   -0.1815    0.6526 C   0  0  0  0  0  0  0  0  0  0  0  0
   -2.4565    0.9431    1.5547 H   0  0  0  0  0  0  0  0  0  0  0  0
   -0.4565    1.5590   -1.5166 H   0  0  0  0  0  0  0  0  0  0  0  0
    0.4843    2.0610   -0.0496 H   0  0  0  0  0  0  0  0  0  0  0  0
    1.8327    0.3399   -1.4420 H   0  0  0  0  0  0  0  0  0  0  0  0
   -0.5317   -0.6396   -1.9837 H   0  0  0  0  0  0  0  0  0  0  0  0
    0.5916   -1.9500   -1.3141 H   0  0  0  0  0  0  0  0  0  0  0  0
   -1.6022   -1.6646    0.2115 H   0  0  0  0  0  0  0  0  0  0  0  0
   -0.2110   -0.5469    2.2357 H   0  0  0  0  0  0  0  0  0  0  0  0
    1.9347   -1.1097    0.7824 H   0  0  0  0  0  0  0  0  0  0  0  0
    1.8351    0.6833    1.1224 H   0  0  0  0  0  0  0  0  0  0  0  0
  1  2  1  0
  2  3  1  0
  3  4  1  0
  4  5  1  0
  5  6  1  0
  6  7  1  0
  7  8  1  0
  6  2  1  0
  7  2  1  0
  8  4  1  0
  1  9  1  0
  3 10  1  0
  3 11  1  0
  4 12  1  0
  5 13  1  0
  5 14  1  0
  6 15  1  0
  7 16  1  0
  8 17  1  0
  8 18  1  0
M  END
