
     RDKit          3D

 23 24  0  0  0  0  0  0  0  0999 V2000
    2.1534    1.0115   -1.0123 O   0  0  0  0  0  0  0  0  0  0  0  0
    1.5622    0.6363    0.1802 C   0  0  0  0  0  0  0  0  0  0  0  0
    1.1184   -0.8085    0.1922 C   0  0  0  0  0  0  0  0  0  0  0  0
   -0.0576   -1.0768   -0.6901 C   0  0  0  0  0  0  0  0  0  0  0  0
   -1.2349   -1.4250    0.2348 C   0  0  0  0  0  0  0  0  0  0  0  0
   -1.4911   -0.0984    0.8949 C   0  0  0  0  0  0  0  0  0  0  0  0
   -0.9183    0.9686   -0.0101 C   0  0  0  0  0  0  0  0  0  0  0  0
    0.3910    1.4856    0.5699 C   0  0  0  0  0  0  0  0  0  0  0  0
   -0.6343    0.2099   -1.2865 C   0  0  0  0  0  0  0  0  0  0  0  0
    2.7458    0.2671   -1.3015 H   0  0  0  0  0  0  0  0  0  0  0  0
    2.3623    0.7169    0.9656 H   0  0  0  0  0  0  0  0  0  0  0  0
    0.9172   -1.0535    1.2766 H   0  0  0  0  0  0  0  0  0  0  0  0
    2.0010   -1.4336   -0.1142 H   0  0  0  0  0  0  0  0  0  0  0  0
    0.1103   -1.8429   -1.4444 H   0  0  0  0  0  0  0  0  0  0  0  0
   -0.9828   -2.2329    0.9227 H   0  0  0  0  0  0  0  0  0  0  0  0
   -2.0784   -1.6828   -0.4522 H   0  0  0  0  0  0  0  0  0  0  0  0
   -2.5940    0.0830    0.9554 H   0  0  0  0  0  0  0  0  0  0  0  0
   -1.0141   -0.1241    1.8894 H   0  0  0  0  0  0  0  0  0  0  0  0
   -1.6145    1.8098   -0.1474 H   0  0  0  0  0  0  0  0  0  0  0  0
    0.5340    2.5606    0.3962 H   0  0  0  0  0  0  0  0  0  0  0  0
    0.2754    1.3753    1.6883 H   0  0  0  0  0  0  0  0  0  0  0  0
    0.0417    0.7062   -1.9669 H   0  0  0  0  0  0  0  0  0  0  0  0
   -1.5927   -0.0524   -1.7405 H   0  0  0  0  0  0  0  0  0  0  0  0
  1  2  1  0
  2  3  1  0
  3  4  1  0
  4  5  1  0
  5  6  1  0
  6  7  1  0
  7  8  1  0
  7  9  1  0
  8  2  1  0
  9  4  1  0
  1 10  1  0
  2 11  1  0
  3 12  1  0
  3 13  1  0
  4 14  1  0
  5 15  1  0
  5 16  1  0
  6 17  1  0
  6 18  1  0
  7 19  1  0
  8 20  1  0
  8 21  1  0
  9 22  1  0
  9 23  1  0
M  END
