
     RDKit          3D

 17 19  0  0  0  0  0  0  0  0999 V2000
   -2.3861   -0.1491   -0.7654 O   0  0  0  0  0  0  0  0  0  0  0  0
   -1.2867    0.2233   -0.0285 C   0  0  0  0  0  0  0  0  0  0  0  0
   -0.1249    0.6976   -0.8654 C   0  0  0  0  0  0  0  0  0  0  0  0
    0.2960   -0.4594   -1.4689 O   0  0  0  0  0  0  0  0  0  0  0  0
    0.4131   -1.3475   -0.3775 C   0  0  0  0  0  0  0  0  0  0  0  0
   -0.5948   -0.9824    0.6266 C   0  0  0  0  0  0  0  0  0  0  0  0
    0.7941   -0.5662    0.8153 C   0  0  0  0  0  0  0  0  0  0  0  0
    0.9357    0.8509    0.2363 C   0  0  0  0  0  0  0  0  0  0  0  0
    2.1430    1.0502   -0.3694 O   0  0  0  0  0  0  0  0  0  0  0  0
   -3.1103    0.5209   -0.5446 H   0  0  0  0  0  0  0  0  0  0  0  0
   -1.4922    0.9614    0.7516 H   0  0  0  0  0  0  0  0  0  0  0  0
   -0.2775    1.5608   -1.4601 H   0  0  0  0  0  0  0  0  0  0  0  0
    0.8231   -2.3381   -0.5227 H   0  0  0  0  0  0  0  0  0  0  0  0
   -1.1549   -1.6613    1.2418 H   0  0  0  0  0  0  0  0  0  0  0  0
    1.4658   -0.9001    1.5891 H   0  0  0  0  0  0  0  0  0  0  0  0
    0.6273    1.6188    0.9467 H   0  0  0  0  0  0  0  0  0  0  0  0
    2.9292    0.9202    0.1949 H   0  0  0  0  0  0  0  0  0  0  0  0
  1  2  1  0
  2  3  1  0
  3  4  1  0
  4  5  1  0
  5  6  1  0
  6  7  1  0
  7  8  1  0
  8  9  1  0
  6  2  1  0
  8  3  1  0
  7  5  1  0
  1 10  1  0
  2 11  1  0
  3 12  1  0
  5 13  1  0
  6 14  1  0
  7 15  1  0
  8 16  1  0
  9 17  1  0
M  END
