
     RDKit          3D

 19 20  0  0  0  0  0  0  0  0999 V2000
    2.6599   -0.2913   -0.9055 O   0  0  0  0  0  0  0  0  0  0  0  0
    1.5505    0.2191   -0.3028 C   0  0  0  0  0  0  0  0  0  0  0  0
    1.3444   -0.3080    1.1203 C   0  0  0  0  0  0  0  0  0  0  0  0
    0.0423    0.1261    1.3718 O   0  0  0  0  0  0  0  0  0  0  0  0
   -0.6830   -0.0075    0.2242 C   0  0  0  0  0  0  0  0  0  0  0  0
   -1.9665   -0.7503    0.2796 C   0  0  0  0  0  0  0  0  0  0  0  0
   -2.4956    0.1533   -0.6660 O   0  0  0  0  0  0  0  0  0  0  0  0
   -1.6167    1.1200   -0.1318 C   0  0  0  0  0  0  0  0  0  0  0  0
    0.2444   -0.3206   -0.9090 C   0  0  0  0  0  0  0  0  0  0  0  0
    3.4190    0.3271   -0.7373 H   0  0  0  0  0  0  0  0  0  0  0  0
    1.4526    1.3075   -0.3077 H   0  0  0  0  0  0  0  0  0  0  0  0
    1.3397   -1.4292    1.0545 H   0  0  0  0  0  0  0  0  0  0  0  0
    2.0743    0.0868    1.8210 H   0  0  0  0  0  0  0  0  0  0  0  0
   -2.4872   -0.5725    1.2412 H   0  0  0  0  0  0  0  0  0  0  0  0
   -1.9581   -1.8048   -0.0591 H   0  0  0  0  0  0  0  0  0  0  0  0
   -1.2312    1.7269   -0.9745 H   0  0  0  0  0  0  0  0  0  0  0  0
   -2.0263    1.6830    0.7138 H   0  0  0  0  0  0  0  0  0  0  0  0
    0.3424   -1.4311   -0.9832 H   0  0  0  0  0  0  0  0  0  0  0  0
   -0.0049    0.1654   -1.8496 H   0  0  0  0  0  0  0  0  0  0  0  0
  1  2  1  0
  2  3  1  0
  3  4  1  0
  4  5  1  0
  5  6  1  0
  6  7  1  0
  7  8  1  0
  5  9  1  0
  9  2  1  0
  8  5  1  0
  1 10  1  0
  2 11  1  0
  3 12  1  0
  3 13  1  0
  6 14  1  0
  6 15  1  0
  8 16  1  0
  8 17  1  0
  9 18  1  0
  9 19  1  0
M  END
