
     RDKit          3D

 13 14  0  0  0  0  0  0  0  0999 V2000
    1.7653   -1.0315   -0.7300 O   0  0  0  0  0  0  0  0  0  0  0  0
    1.1777   -0.1772    0.2106 C   0  0  0  0  0  0  0  0  0  0  0  0
   -0.0761   -0.5781    0.8371 C   0  0  0  0  0  0  0  0  0  0  0  0
   -0.8605   -1.4400    0.0361 O   0  0  0  0  0  0  0  0  0  0  0  0
   -1.2915   -0.2689   -0.6242 C   0  0  0  0  0  0  0  0  0  0  0  0
   -0.0739    0.4633   -0.2076 C   0  0  0  0  0  0  0  0  0  0  0  0
   -0.2148    1.8059    0.0745 O   0  0  0  0  0  0  0  0  0  0  0  0
    2.2198   -0.4763   -1.4130 H   0  0  0  0  0  0  0  0  0  0  0  0
    1.8948    0.3876    0.8146 H   0  0  0  0  0  0  0  0  0  0  0  0
   -0.3760   -0.3787    1.8603 H   0  0  0  0  0  0  0  0  0  0  0  0
   -2.2519    0.0452   -0.1223 H   0  0  0  0  0  0  0  0  0  0  0  0
   -1.3695   -0.3555   -1.7146 H   0  0  0  0  0  0  0  0  0  0  0  0
   -0.5433    2.0043    0.9785 H   0  0  0  0  0  0  0  0  0  0  0  0
  1  2  1  0
  2  3  1  0
  3  4  1  0
  4  5  1  0
  5  6  1  0
  6  7  1  0
  6  2  1  0
  6  3  1  0
  1  8  1  0
  2  9  1  0
  3 10  1  0
  5 11  1  0
  5 12  1  0
  7 13  1  0
M  END
