
     RDKit          3D

 19 20  0  0  0  0  0  0  0  0999 V2000
   -2.2710    0.4211   -1.2488 O   0  0  0  0  0  0  0  0  0  0  0  0
   -1.3936   -0.3084   -0.4602 C   0  0  0  0  0  0  0  0  0  0  0  0
   -1.7668   -0.0625    0.9849 C   0  0  0  0  0  0  0  0  0  0  0  0
   -0.4265   -0.1586    1.6474 C   0  0  0  0  0  0  0  0  0  0  0  0
    0.5411    0.0831    0.7988 C   0  0  0  0  0  0  0  0  0  0  0  0
    1.9926    0.1990    0.5788 C   0  0  0  0  0  0  0  0  0  0  0  0
    2.0967   -0.4472   -0.7841 C   0  0  0  0  0  0  0  0  0  0  0  0
    0.9285   -0.3467   -1.4118 C   0  0  0  0  0  0  0  0  0  0  0  0
   -0.0461    0.3641   -0.5398 C   0  0  0  0  0  0  0  0  0  0  0  0
   -1.9510    1.3296   -1.4531 H   0  0  0  0  0  0  0  0  0  0  0  0
   -1.3341   -1.3636   -0.7191 H   0  0  0  0  0  0  0  0  0  0  0  0
   -2.3755   -0.9327    1.3103 H   0  0  0  0  0  0  0  0  0  0  0  0
   -2.2329    0.9016    1.1576 H   0  0  0  0  0  0  0  0  0  0  0  0
   -0.2786   -0.3964    2.6896 H   0  0  0  0  0  0  0  0  0  0  0  0
    2.5958   -0.3432    1.3267 H   0  0  0  0  0  0  0  0  0  0  0  0
    2.3059    1.2485    0.4266 H   0  0  0  0  0  0  0  0  0  0  0  0
    2.9982   -0.9039   -1.1440 H   0  0  0  0  0  0  0  0  0  0  0  0
    0.7223   -0.7239   -2.4015 H   0  0  0  0  0  0  0  0  0  0  0  0
   -0.1053    1.4402   -0.7583 H   0  0  0  0  0  0  0  0  0  0  0  0
  1  2  1  0
  2  3  1  0
  3  4  1  0
  4  5  2  0
  5  6  1  0
  6  7  1  0
  7  8  2  0
  8  9  1  0
  9  2  1  0
  9  5  1  0
  1 10  1  0
  2 11  1  0
  3 12  1  0
  3 13  1  0
  4 14  1  0
  6 15  1  0
  6 16  1  0
  7 17  1  0
  8 18  1  0
  9 19  1  0
M  END
