
     RDKit          3D

 21 23  0  0  0  0  0  0  0  0999 V2000
    1.7116    0.2642    1.6678 O   0  0  0  0  0  0  0  0  0  0  0  0
    1.0353    0.7657    0.5708 C   0  0  0  0  0  0  0  0  0  0  0  0
    1.5113    0.0437   -0.6799 C   0  0  0  0  0  0  0  0  0  0  0  0
    0.7057   -1.2214   -0.6310 C   0  0  0  0  0  0  0  0  0  0  0  0
   -0.6401   -0.8488   -0.1185 C   0  0  0  0  0  0  0  0  0  0  0  0
   -1.6755   -0.2313   -1.0172 C   0  0  0  0  0  0  0  0  0  0  0  0
   -1.2372    1.1295   -0.4929 C   0  0  0  0  0  0  0  0  0  0  0  0
   -0.4441    0.5114    0.6190 C   0  0  0  0  0  0  0  0  0  0  0  0
   -0.9029   -0.6926    1.3429 C   0  0  0  0  0  0  0  0  0  0  0  0
    2.0125    0.9921    2.2703 H   0  0  0  0  0  0  0  0  0  0  0  0
    1.2405    1.8576    0.4364 H   0  0  0  0  0  0  0  0  0  0  0  0
    1.2991    0.6331   -1.5919 H   0  0  0  0  0  0  0  0  0  0  0  0
    2.5767   -0.1827   -0.5321 H   0  0  0  0  0  0  0  0  0  0  0  0
    0.7028   -1.7518   -1.5865 H   0  0  0  0  0  0  0  0  0  0  0  0
    1.1789   -1.8966    0.1374 H   0  0  0  0  0  0  0  0  0  0  0  0
   -2.6954   -0.4459   -0.5990 H   0  0  0  0  0  0  0  0  0  0  0  0
   -1.5512   -0.3919   -2.0890 H   0  0  0  0  0  0  0  0  0  0  0  0
   -2.0666    1.7571   -0.0945 H   0  0  0  0  0  0  0  0  0  0  0  0
   -0.6262    1.6371   -1.2556 H   0  0  0  0  0  0  0  0  0  0  0  0
   -1.9718   -0.7566    1.6440 H   0  0  0  0  0  0  0  0  0  0  0  0
   -0.1636   -1.1720    1.9993 H   0  0  0  0  0  0  0  0  0  0  0  0
  1  2  1  0
  2  3  1  0
  3  4  1  0
  4  5  1  0
  5  6  1  0
  6  7  1  0
  7  8  1  0
  8  9  1  0
  8  2  1  0
  8  5  1  0
  9  5  1  0
  1 10  1  0
  2 11  1  0
  3 12  1  0
  3 13  1  0
  4 14  1  0
  4 15  1  0
  6 16  1  0
  6 17  1  0
  7 18  1  0
  7 19  1  0
  9 20  1  0
  9 21  1  0
M  END
