
     RDKit          3D

 18 19  0  0  0  0  0  0  0  0999 V2000
    2.4845    0.7395   -1.3425 O   0  0  0  0  0  0  0  0  0  0  0  0
    1.6103    0.2065   -0.4343 C   0  0  0  0  0  0  0  0  0  0  0  0
    0.2489   -0.1925   -1.0231 C   0  0  0  0  0  0  0  0  0  0  0  0
   -0.3549    0.3602    0.2118 C   0  0  0  0  0  0  0  0  0  0  0  0
    0.8309    1.2363    0.3983 C   0  0  0  0  0  0  0  0  0  0  0  0
   -1.0338   -0.3857    1.2379 C   0  0  0  0  0  0  0  0  0  0  0  0
   -1.7247    0.7096    0.4311 C   0  0  0  0  0  0  0  0  0  0  0  0
   -2.6826    0.3670   -0.4883 O   0  0  0  0  0  0  0  0  0  0  0  0
    3.2550    1.0954   -0.8736 H   0  0  0  0  0  0  0  0  0  0  0  0
    1.9937   -0.5832    0.2419 H   0  0  0  0  0  0  0  0  0  0  0  0
    0.0227    0.3788   -1.9456 H   0  0  0  0  0  0  0  0  0  0  0  0
    0.1261   -1.2654   -1.1666 H   0  0  0  0  0  0  0  0  0  0  0  0
    1.2243    1.3818    1.4027 H   0  0  0  0  0  0  0  0  0  0  0  0
    0.6835    2.1973   -0.1779 H   0  0  0  0  0  0  0  0  0  0  0  0
   -1.3342   -1.4378    1.0713 H   0  0  0  0  0  0  0  0  0  0  0  0
   -0.7840   -0.1800    2.3012 H   0  0  0  0  0  0  0  0  0  0  0  0
   -1.9555    1.6531    0.9944 H   0  0  0  0  0  0  0  0  0  0  0  0
   -2.6101   -0.5423   -0.8388 H   0  0  0  0  0  0  0  0  0  0  0  0
  1  2  1  0
  2  3  1  0
  3  4  1  0
  4  5  1  0
  4  6  1  0
  6  7  1  0
  7  8  1  0
  5  2  1  0
  7  4  1  0
  1  9  1  0
  2 10  1  0
  3 11  1  0
  3 12  1  0
  5 13  1  0
  5 14  1  0
  6 15  1  0
  6 16  1  0
  7 17  1  0
  8 18  1  0
M  END
