
     RDKit          3D

 21 22  0  0  0  0  0  0  0  0999 V2000
   -2.7153   -0.6815   -1.0474 O   0  0  0  0  0  0  0  0  0  0  0  0
   -2.0078   -0.0267   -0.0283 C   0  0  0  0  0  0  0  0  0  0  0  0
   -0.8473    0.7264   -0.3985 C   0  0  0  0  0  0  0  0  0  0  0  0
   -0.0339    1.6570    0.3990 C   0  0  0  0  0  0  0  0  0  0  0  0
    1.4032    1.4138    0.0877 C   0  0  0  0  0  0  0  0  0  0  0  0
    1.9809    0.2343   -0.0725 C   0  0  0  0  0  0  0  0  0  0  0  0
    1.5695   -1.1559   -0.0308 C   0  0  0  0  0  0  0  0  0  0  0  0
    0.1505   -1.4649   -0.4213 C   0  0  0  0  0  0  0  0  0  0  0  0
   -0.7586   -0.6180    0.3768 C   0  0  0  0  0  0  0  0  0  0  0  0
   -3.6215   -0.3502   -1.1583 H   0  0  0  0  0  0  0  0  0  0  0  0
   -2.7162    0.2920    0.7898 H   0  0  0  0  0  0  0  0  0  0  0  0
   -0.5500    0.7104   -1.4814 H   0  0  0  0  0  0  0  0  0  0  0  0
   -0.2267    1.6290    1.4930 H   0  0  0  0  0  0  0  0  0  0  0  0
   -0.2734    2.7059    0.0814 H   0  0  0  0  0  0  0  0  0  0  0  0
    2.0530    2.2738   -0.0215 H   0  0  0  0  0  0  0  0  0  0  0  0
    3.0596    0.3619   -0.2940 H   0  0  0  0  0  0  0  0  0  0  0  0
    1.7516   -1.6274    0.9755 H   0  0  0  0  0  0  0  0  0  0  0  0
    2.2116   -1.7323   -0.7307 H   0  0  0  0  0  0  0  0  0  0  0  0
    0.0711   -1.2216   -1.5220 H   0  0  0  0  0  0  0  0  0  0  0  0
   -0.0016   -2.5428   -0.2979 H   0  0  0  0  0  0  0  0  0  0  0  0
   -0.4987   -0.5832    1.4517 H   0  0  0  0  0  0  0  0  0  0  0  0
  1  2  1  0
  2  3  1  0
  3  4  1  0
  4  5  1  0
  5  6  2  0
  6  7  1  0
  7  8  1  0
  8  9  1  0
  9  2  1  0
  9  3  1  0
  1 10  1  0
  2 11  1  0
  3 12  1  0
  4 13  1  0
  4 14  1  0
  5 15  1  0
  6 16  1  0
  7 17  1  0
  7 18  1  0
  8 19  1  0
  8 20  1  0
  9 21  1  0
M  END
