
     RDKit          3D

 21 22  0  0  0  0  0  0  0  0999 V2000
    2.9512    0.0731   -0.4914 O   0  0  0  0  0  0  0  0  0  0  0  0
    1.9356    0.2628    0.4123 C   0  0  0  0  0  0  0  0  0  0  0  0
    1.1867    1.5292   -0.0043 C   0  0  0  0  0  0  0  0  0  0  0  0
   -0.0398    1.3328    0.6143 O   0  0  0  0  0  0  0  0  0  0  0  0
   -0.3987    0.0551    0.2156 C   0  0  0  0  0  0  0  0  0  0  0  0
   -1.1279   -0.0284   -1.0820 C   0  0  0  0  0  0  0  0  0  0  0  0
   -2.3820   -0.4829   -0.3667 C   0  0  0  0  0  0  0  0  0  0  0  0
   -1.6071   -0.4458    0.9449 C   0  0  0  0  0  0  0  0  0  0  0  0
    0.8491   -0.7680    0.3465 C   0  0  0  0  0  0  0  0  0  0  0  0
    3.0969   -0.8496   -0.7735 H   0  0  0  0  0  0  0  0  0  0  0  0
    2.3783    0.3598    1.4166 H   0  0  0  0  0  0  0  0  0  0  0  0
    1.0925    1.5200   -1.0984 H   0  0  0  0  0  0  0  0  0  0  0  0
    1.6808    2.4178    0.4062 H   0  0  0  0  0  0  0  0  0  0  0  0
   -0.7807   -0.7674   -1.8122 H   0  0  0  0  0  0  0  0  0  0  0  0
   -1.2584    0.9633   -1.5863 H   0  0  0  0  0  0  0  0  0  0  0  0
   -3.1894    0.2767   -0.4336 H   0  0  0  0  0  0  0  0  0  0  0  0
   -2.6985   -1.5146   -0.6729 H   0  0  0  0  0  0  0  0  0  0  0  0
   -1.4633   -1.4559    1.3822 H   0  0  0  0  0  0  0  0  0  0  0  0
   -2.0276    0.2888    1.6793 H   0  0  0  0  0  0  0  0  0  0  0  0
    0.8072   -1.2643    1.3555 H   0  0  0  0  0  0  0  0  0  0  0  0
    0.9952   -1.5025   -0.4523 H   0  0  0  0  0  0  0  0  0  0  0  0
  1  2  1  0
  2  3  1  0
  3  4  1  0
  4  5  1  0
  5  6  1  0
  6  7  1  0
  7  8  1  0
  5  9  1  0
  9  2  1  0
  8  5  1  0
  1 10  1  0
  2 11  1  0
  3 12  1  0
  3 13  1  0
  6 14  1  0
  6 15  1  0
  7 16  1  0
  7 17  1  0
  8 18  1  0
  8 19  1  0
  9 20  1  0
  9 21  1  0
M  END
