
     RDKit          3D

 17 18  0  0  0  0  0  0  0  0999 V2000
   -1.4380   -1.4966   -0.8360 O   0  0  0  0  0  0  0  0  0  0  0  0
   -1.1010   -0.5470    0.1241 C   0  0  0  0  0  0  0  0  0  0  0  0
   -1.4657    0.8251   -0.2849 C   0  0  0  0  0  0  0  0  0  0  0  0
   -0.4260    1.6424   -0.2505 C   0  0  0  0  0  0  0  0  0  0  0  0
    0.7908    0.9267    0.1900 C   0  0  0  0  0  0  0  0  0  0  0  0
    1.2965   -0.1258   -0.7250 C   0  0  0  0  0  0  0  0  0  0  0  0
    2.5847   -0.6117   -0.6006 O   0  0  0  0  0  0  0  0  0  0  0  0
    0.3584   -0.4715    0.3790 C   0  0  0  0  0  0  0  0  0  0  0  0
    0.8273   -1.2026    1.4673 O   0  0  0  0  0  0  0  0  0  0  0  0
   -2.3954   -1.7138   -0.6952 H   0  0  0  0  0  0  0  0  0  0  0  0
   -1.6402   -0.7875    1.0646 H   0  0  0  0  0  0  0  0  0  0  0  0
   -2.4925    1.1276   -0.5845 H   0  0  0  0  0  0  0  0  0  0  0  0
   -0.5185    2.7116   -0.5268 H   0  0  0  0  0  0  0  0  0  0  0  0
    1.5073    1.4210    0.8669 H   0  0  0  0  0  0  0  0  0  0  0  0
    0.9329   -0.0994   -1.7730 H   0  0  0  0  0  0  0  0  0  0  0  0
    3.1091   -0.1917    0.1163 H   0  0  0  0  0  0  0  0  0  0  0  0
    0.0704   -1.4069    2.0683 H   0  0  0  0  0  0  0  0  0  0  0  0
  1  2  1  0
  2  3  1  0
  3  4  2  0
  4  5  1  0
  5  6  1  0
  6  7  1  0
  6  8  1  0
  8  9  1  0
  8  2  1  0
  8  5  1  0
  1 10  1  0
  2 11  1  0
  3 12  1  0
  4 13  1  0
  5 14  1  0
  6 15  1  0
  7 16  1  0
  9 17  1  0
M  END
