
     RDKit          3D

 21 22  0  0  0  0  0  0  0  0999 V2000
    2.2304   -0.3542    1.1077 O   0  0  0  0  0  0  0  0  0  0  0  0
    1.9100   -0.0006   -0.1857 C   0  0  0  0  0  0  0  0  0  0  0  0
    0.9145    1.1584   -0.1429 C   0  0  0  0  0  0  0  0  0  0  0  0
   -0.2775    0.5052    0.5156 C   0  0  0  0  0  0  0  0  0  0  0  0
   -1.5706    0.8198   -0.2036 C   0  0  0  0  0  0  0  0  0  0  0  0
   -2.3083   -0.5064   -0.0612 C   0  0  0  0  0  0  0  0  0  0  0  0
   -1.3368   -1.4664   -0.1460 O   0  0  0  0  0  0  0  0  0  0  0  0
   -0.1505   -0.9751    0.3075 C   0  0  0  0  0  0  0  0  0  0  0  0
    0.9819   -1.1038   -0.7183 C   0  0  0  0  0  0  0  0  0  0  0  0
    2.1307    0.4589    1.6799 H   0  0  0  0  0  0  0  0  0  0  0  0
    2.7537    0.1855   -0.8435 H   0  0  0  0  0  0  0  0  0  0  0  0
    0.6714    1.3943   -1.1876 H   0  0  0  0  0  0  0  0  0  0  0  0
    1.3510    1.9726    0.4351 H   0  0  0  0  0  0  0  0  0  0  0  0
   -0.2823    0.8135    1.5714 H   0  0  0  0  0  0  0  0  0  0  0  0
   -1.3161    1.0193   -1.2554 H   0  0  0  0  0  0  0  0  0  0  0  0
   -2.1715    1.5891    0.2755 H   0  0  0  0  0  0  0  0  0  0  0  0
   -3.0711   -0.6212   -0.8661 H   0  0  0  0  0  0  0  0  0  0  0  0
   -2.8196   -0.5417    0.9122 H   0  0  0  0  0  0  0  0  0  0  0  0
    0.2371   -1.5026    1.2218 H   0  0  0  0  0  0  0  0  0  0  0  0
    1.4551   -2.0845   -0.6984 H   0  0  0  0  0  0  0  0  0  0  0  0
    0.6681   -0.7600   -1.7180 H   0  0  0  0  0  0  0  0  0  0  0  0
  1  2  1  0
  2  3  1  0
  3  4  1  0
  4  5  1  0
  5  6  1  0
  6  7  1  0
  7  8  1  0
  8  9  1  0
  9  2  1  0
  8  4  1  0
  1 10  1  0
  2 11  1  0
  3 12  1  0
  3 13  1  0
  4 14  1  0
  5 15  1  0
  5 16  1  0
  6 17  1  0
  6 18  1  0
  8 19  1  0
  9 20  1  0
  9 21  1  0
M  END
