
     RDKit          3D

 19 20  0  0  0  0  0  0  0  0999 V2000
    2.1043   -1.1694   -1.4300 O   0  0  0  0  0  0  0  0  0  0  0  0
    1.8543   -0.6405   -0.1426 C   0  0  0  0  0  0  0  0  0  0  0  0
    2.1762    0.7591    0.1247 C   0  0  0  0  0  0  0  0  0  0  0  0
    0.7533    0.3344    0.0520 C   0  0  0  0  0  0  0  0  0  0  0  0
   -0.0819    0.3836    1.1098 O   0  0  0  0  0  0  0  0  0  0  0  0
   -1.3104    0.8706    1.0621 C   0  0  0  0  0  0  0  0  0  0  0  0
   -2.2776    0.1474    0.1850 C   0  0  0  0  0  0  0  0  0  0  0  0
   -1.7686   -0.9737   -0.6700 C   0  0  0  0  0  0  0  0  0  0  0  0
   -2.6081   -1.1781    0.4693 O   0  0  0  0  0  0  0  0  0  0  0  0
    3.0736   -1.1331   -1.6223 H   0  0  0  0  0  0  0  0  0  0  0  0
    1.9758   -1.3881    0.6608 H   0  0  0  0  0  0  0  0  0  0  0  0
    2.5657    1.4636   -0.6367 H   0  0  0  0  0  0  0  0  0  0  0  0
    2.6524    0.9590    1.1246 H   0  0  0  0  0  0  0  0  0  0  0  0
    0.2679    0.7091   -0.9012 H   0  0  0  0  0  0  0  0  0  0  0  0
   -1.7460    0.7430    2.1176 H   0  0  0  0  0  0  0  0  0  0  0  0
   -1.3901    1.9856    0.9289 H   0  0  0  0  0  0  0  0  0  0  0  0
   -3.1777    0.7070   -0.1963 H   0  0  0  0  0  0  0  0  0  0  0  0
   -0.7877   -1.4153   -0.5799 H   0  0  0  0  0  0  0  0  0  0  0  0
   -2.2754   -1.1643   -1.6557 H   0  0  0  0  0  0  0  0  0  0  0  0
  1  2  1  0
  2  3  1  0
  3  4  1  0
  4  5  1  0
  5  6  1  0
  6  7  1  0
  7  8  1  0
  8  9  1  0
  4  2  1  0
  9  7  1  0
  1 10  1  0
  2 11  1  0
  3 12  1  0
  3 13  1  0
  4 14  1  0
  6 15  1  0
  6 16  1  0
  7 17  1  0
  8 18  1  0
  8 19  1  0
M  END
