
     RDKit          3D

 19 20  0  0  0  0  0  0  0  0999 V2000
   -1.2448   -1.0698    1.6064 O   0  0  0  0  0  0  0  0  0  0  0  0
   -0.5789    0.1174    1.2244 C   0  0  0  0  0  0  0  0  0  0  0  0
   -1.5136    0.9620    0.4252 C   0  0  0  0  0  0  0  0  0  0  0  0
   -1.4034    0.6409   -0.8609 C   0  0  0  0  0  0  0  0  0  0  0  0
   -0.3899   -0.4402   -1.0281 C   0  0  0  0  0  0  0  0  0  0  0  0
    0.2998   -0.3670   -2.2044 O   0  0  0  0  0  0  0  0  0  0  0  0
    0.4295   -0.2435    0.2015 C   0  0  0  0  0  0  0  0  0  0  0  0
    1.5828    0.7636    0.0186 C   0  0  0  0  0  0  0  0  0  0  0  0
    1.7846   -0.6414    0.4171 C   0  0  0  0  0  0  0  0  0  0  0  0
   -2.1952   -1.0042    1.3355 H   0  0  0  0  0  0  0  0  0  0  0  0
   -0.1810    0.6440    2.1064 H   0  0  0  0  0  0  0  0  0  0  0  0
   -2.1585    1.7081    0.8929 H   0  0  0  0  0  0  0  0  0  0  0  0
   -1.9793    1.1146   -1.6432 H   0  0  0  0  0  0  0  0  0  0  0  0
   -0.9325   -1.4068   -0.9248 H   0  0  0  0  0  0  0  0  0  0  0  0
    0.5589   -1.3087   -2.4633 H   0  0  0  0  0  0  0  0  0  0  0  0
    1.8519    1.0537   -1.0042 H   0  0  0  0  0  0  0  0  0  0  0  0
    1.6391    1.5864    0.7653 H   0  0  0  0  0  0  0  0  0  0  0  0
    2.2942   -1.2948   -0.3173 H   0  0  0  0  0  0  0  0  0  0  0  0
    2.1364   -0.8143    1.4531 H   0  0  0  0  0  0  0  0  0  0  0  0
  1  2  1  0
  2  3  1  0
  3  4  2  0
  4  5  1  0
  5  6  1  0
  5  7  1  0
  7  8  1  0
  8  9  1  0
  7  2  1  0
  9  7  1  0
  1 10  1  0
  2 11  1  0
  3 12  1  0
  4 13  1  0
  5 14  1  0
  6 15  1  0
  8 16  1  0
  8 17  1  0
  9 18  1  0
  9 19  1  0
M  END
