
     RDKit          3D

 21 22  0  0  0  0  0  0  0  0999 V2000
    2.6171    0.3627    0.2489 O   0  0  0  0  0  0  0  0  0  0  0  0
    1.3775   -0.3116    0.1371 C   0  0  0  0  0  0  0  0  0  0  0  0
    0.7698    0.0540   -1.1893 C   0  0  0  0  0  0  0  0  0  0  0  0
   -0.7159    0.2445   -1.1236 C   0  0  0  0  0  0  0  0  0  0  0  0
   -0.9648    1.4095   -0.1535 C   0  0  0  0  0  0  0  0  0  0  0  0
   -0.8939    0.3660    0.9387 C   0  0  0  0  0  0  0  0  0  0  0  0
    0.5111    0.0021    1.3057 C   0  0  0  0  0  0  0  0  0  0  0  0
   -1.3944   -0.6304   -0.1109 C   0  0  0  0  0  0  0  0  0  0  0  0
   -0.9168   -1.9081    0.0311 O   0  0  0  0  0  0  0  0  0  0  0  0
    3.2295   -0.1453    0.8432 H   0  0  0  0  0  0  0  0  0  0  0  0
    1.6682   -1.4033    0.0958 H   0  0  0  0  0  0  0  0  0  0  0  0
    1.1978    1.0460   -1.5147 H   0  0  0  0  0  0  0  0  0  0  0  0
    0.9820   -0.7167   -1.9528 H   0  0  0  0  0  0  0  0  0  0  0  0
   -1.1774    0.3469   -2.0985 H   0  0  0  0  0  0  0  0  0  0  0  0
   -2.0233    1.7912   -0.2019 H   0  0  0  0  0  0  0  0  0  0  0  0
   -0.1820    2.1645   -0.1634 H   0  0  0  0  0  0  0  0  0  0  0  0
   -1.5444    0.5195    1.7900 H   0  0  0  0  0  0  0  0  0  0  0  0
    0.4495   -0.9283    1.9348 H   0  0  0  0  0  0  0  0  0  0  0  0
    0.9843    0.7929    1.9047 H   0  0  0  0  0  0  0  0  0  0  0  0
   -2.4942   -0.5438   -0.2155 H   0  0  0  0  0  0  0  0  0  0  0  0
   -1.4798   -2.5124   -0.5060 H   0  0  0  0  0  0  0  0  0  0  0  0
  1  2  1  0
  2  3  1  0
  3  4  1  0
  4  5  1  0
  5  6  1  0
  6  7  1  0
  6  8  1  0
  8  9  1  0
  7  2  1  0
  8  4  1  0
  1 10  1  0
  2 11  1  0
  3 12  1  0
  3 13  1  0
  4 14  1  0
  5 15  1  0
  5 16  1  0
  6 17  1  0
  7 18  1  0
  7 19  1  0
  8 20  1  0
  9 21  1  0
M  END
