
     RDKit          3D

 16 17  0  0  0  0  0  0  0  0999 V2000
    1.7996   -0.0416   -0.7875 O   0  0  0  0  0  0  0  0  0  0  0  0
    1.0491   -0.0072    0.3648 C   0  0  0  0  0  0  0  0  0  0  0  0
    0.1039   -1.1865    0.4208 C   0  0  0  0  0  0  0  0  0  0  0  0
   -0.4722   -1.1374   -0.9721 C   0  0  0  0  0  0  0  0  0  0  0  0
   -0.7153    0.1745   -1.1254 C   0  0  0  0  0  0  0  0  0  0  0  0
   -0.2644    0.7579    0.1405 C   0  0  0  0  0  0  0  0  0  0  0  0
   -0.3246    2.0370    0.4121 O   0  0  0  0  0  0  0  0  0  0  0  0
   -0.8435   -0.2584    1.1385 C   0  0  0  0  0  0  0  0  0  0  0  0
    2.5181    0.6313   -0.8215 H   0  0  0  0  0  0  0  0  0  0  0  0
    1.5495    0.2661    1.2912 H   0  0  0  0  0  0  0  0  0  0  0  0
    0.3972   -2.1009    0.8328 H   0  0  0  0  0  0  0  0  0  0  0  0
   -0.6422   -1.9521   -1.6620 H   0  0  0  0  0  0  0  0  0  0  0  0
   -1.1376    0.7244   -1.9544 H   0  0  0  0  0  0  0  0  0  0  0  0
   -0.4848    2.6505   -0.3192 H   0  0  0  0  0  0  0  0  0  0  0  0
   -1.8920   -0.5123    0.8595 H   0  0  0  0  0  0  0  0  0  0  0  0
   -0.6408   -0.0452    2.1820 H   0  0  0  0  0  0  0  0  0  0  0  0
  1  2  1  0
  2  3  1  0
  3  4  1  0
  4  5  2  0
  5  6  1  0
  6  7  1  0
  6  8  1  0
  6  2  1  0
  8  3  1  0
  1  9  1  0
  2 10  1  0
  3 11  1  0
  4 12  1  0
  5 13  1  0
  7 14  1  0
  8 15  1  0
  8 16  1  0
M  END
