
     RDKit          3D

 21 22  0  0  0  0  0  0  0  0999 V2000
   -1.1247    2.4575   -0.3100 O   0  0  0  0  0  0  0  0  0  0  0  0
   -0.6196    1.1868   -0.5541 C   0  0  0  0  0  0  0  0  0  0  0  0
   -1.6935    0.2027   -0.0788 C   0  0  0  0  0  0  0  0  0  0  0  0
   -0.9072   -0.9823    0.3788 C   0  0  0  0  0  0  0  0  0  0  0  0
   -0.7201   -1.8692   -0.6864 O   0  0  0  0  0  0  0  0  0  0  0  0
    0.3953   -0.4466    0.9139 C   0  0  0  0  0  0  0  0  0  0  0  0
    1.5632   -1.0848    0.1813 C   0  0  0  0  0  0  0  0  0  0  0  0
    1.7417    0.2289   -0.5510 C   0  0  0  0  0  0  0  0  0  0  0  0
    0.6163    0.8701    0.2140 C   0  0  0  0  0  0  0  0  0  0  0  0
   -0.5045    3.0552    0.1513 H   0  0  0  0  0  0  0  0  0  0  0  0
   -0.4906    1.0086   -1.6384 H   0  0  0  0  0  0  0  0  0  0  0  0
   -2.4120   -0.0020   -0.8815 H   0  0  0  0  0  0  0  0  0  0  0  0
   -2.2379    0.6209    0.7949 H   0  0  0  0  0  0  0  0  0  0  0  0
   -1.4260   -1.4757    1.2263 H   0  0  0  0  0  0  0  0  0  0  0  0
   -1.5264   -2.4702   -0.6689 H   0  0  0  0  0  0  0  0  0  0  0  0
    0.4952   -0.4384    2.0113 H   0  0  0  0  0  0  0  0  0  0  0  0
    2.3645   -1.3621    0.8761 H   0  0  0  0  0  0  0  0  0  0  0  0
    1.2818   -1.9467   -0.4372 H   0  0  0  0  0  0  0  0  0  0  0  0
    2.7157    0.6802   -0.2418 H   0  0  0  0  0  0  0  0  0  0  0  0
    1.6007    0.1229   -1.6374 H   0  0  0  0  0  0  0  0  0  0  0  0
    0.8880    1.6441    0.9377 H   0  0  0  0  0  0  0  0  0  0  0  0
  1  2  1  0
  2  3  1  0
  3  4  1  0
  4  5  1  0
  4  6  1  0
  6  7  1  0
  7  8  1  0
  8  9  1  0
  9  2  1  0
  9  6  1  0
  1 10  1  0
  2 11  1  0
  3 12  1  0
  3 13  1  0
  4 14  1  0
  5 15  1  0
  6 16  1  0
  7 17  1  0
  7 18  1  0
  8 19  1  0
  8 20  1  0
  9 21  1  0
M  END
