
     RDKit          3D

 18 18  0  0  0  0  0  0  0  0999 V2000
    2.4733   -0.5686   -0.2512 O   0  0  0  0  0  0  0  0  0  0  0  0
    1.1325   -0.2938   -0.5854 C   0  0  0  0  0  0  0  0  0  0  0  0
    0.8008    1.0347    0.0441 C   0  0  0  0  0  0  0  0  0  0  0  0
   -0.6589    1.3979   -0.1486 C   0  0  0  0  0  0  0  0  0  0  0  0
   -1.4043    0.6487    0.7103 O   0  0  0  0  0  0  0  0  0  0  0  0
   -1.8876   -0.5253    0.2163 C   0  0  0  0  0  0  0  0  0  0  0  0
   -1.0017   -1.3698   -0.3586 O   0  0  0  0  0  0  0  0  0  0  0  0
    0.2787   -1.3455    0.1063 C   0  0  0  0  0  0  0  0  0  0  0  0
    2.5442   -0.3353    0.7203 H   0  0  0  0  0  0  0  0  0  0  0  0
    0.9720   -0.3246   -1.6706 H   0  0  0  0  0  0  0  0  0  0  0  0
    1.4175    1.8382   -0.4033 H   0  0  0  0  0  0  0  0  0  0  0  0
    0.9889    0.9363    1.1295 H   0  0  0  0  0  0  0  0  0  0  0  0
   -0.9585    1.3561   -1.2033 H   0  0  0  0  0  0  0  0  0  0  0  0
   -0.7351    2.4851    0.1457 H   0  0  0  0  0  0  0  0  0  0  0  0
   -2.4165   -1.0559    1.0466 H   0  0  0  0  0  0  0  0  0  0  0  0
   -2.6979   -0.3043   -0.5351 H   0  0  0  0  0  0  0  0  0  0  0  0
    0.3910   -1.2431    1.1951 H   0  0  0  0  0  0  0  0  0  0  0  0
    0.7615   -2.3307   -0.1580 H   0  0  0  0  0  0  0  0  0  0  0  0
  1  2  1  0
  2  3  1  0
  3  4  1  0
  4  5  1  0
  5  6  1  0
  6  7  1  0
  7  8  1  0
  8  2  1  0
  1  9  1  0
  2 10  1  0
  3 11  1  0
  3 12  1  0
  4 13  1  0
  4 14  1  0
  6 15  1  0
  6 16  1  0
  8 17  1  0
  8 18  1  0
M  END
