
     RDKit          3D

 16 18  0  0  0  0  0  0  0  0999 V2000
    1.6726    0.1692    1.5674 O   0  0  0  0  0  0  0  0  0  0  0  0
    1.3965    0.2390    0.2267 C   0  0  0  0  0  0  0  0  0  0  0  0
    0.1973    1.0373   -0.1739 C   0  0  0  0  0  0  0  0  0  0  0  0
    0.0702    0.1416   -1.2606 O   0  0  0  0  0  0  0  0  0  0  0  0
    0.5154   -0.8402   -0.3434 C   0  0  0  0  0  0  0  0  0  0  0  0
   -0.6659   -0.9614    0.5845 C   0  0  0  0  0  0  0  0  0  0  0  0
   -1.9461   -0.2697    0.1840 C   0  0  0  0  0  0  0  0  0  0  0  0
   -0.8985    0.5831    0.7660 C   0  0  0  0  0  0  0  0  0  0  0  0
    2.6411    0.3762    1.7419 H   0  0  0  0  0  0  0  0  0  0  0  0
    2.2647    0.3997   -0.4469 H   0  0  0  0  0  0  0  0  0  0  0  0
    0.2891    2.0745   -0.3994 H   0  0  0  0  0  0  0  0  0  0  0  0
    0.9585   -1.7222   -0.7484 H   0  0  0  0  0  0  0  0  0  0  0  0
   -0.6204   -1.5543    1.4944 H   0  0  0  0  0  0  0  0  0  0  0  0
   -2.8388   -0.4529    0.7772 H   0  0  0  0  0  0  0  0  0  0  0  0
   -2.1416   -0.1159   -0.9021 H   0  0  0  0  0  0  0  0  0  0  0  0
   -0.8940    0.8961    1.8157 H   0  0  0  0  0  0  0  0  0  0  0  0
  1  2  1  0
  2  3  1  0
  3  4  1  0
  4  5  1  0
  5  6  1  0
  6  7  1  0
  7  8  1  0
  5  2  1  0
  8  6  1  0
  8  3  1  0
  1  9  1  0
  2 10  1  0
  3 11  1  0
  5 12  1  0
  6 13  1  0
  7 14  1  0
  7 15  1  0
  8 16  1  0
M  END
