
     RDKit          3D

 19 21  0  0  0  0  0  0  0  0999 V2000
    2.9925   -0.5434   -0.1406 O   0  0  0  0  0  0  0  0  0  0  0  0
    1.8467    0.2693    0.0579 C   0  0  0  0  0  0  0  0  0  0  0  0
    0.8418    0.1835   -0.9358 C   0  0  0  0  0  0  0  0  0  0  0  0
   -0.3251   -0.7890   -1.0535 C   0  0  0  0  0  0  0  0  0  0  0  0
   -0.7905    0.0333    0.1222 C   0  0  0  0  0  0  0  0  0  0  0  0
   -2.0064   -0.0297    0.8114 C   0  0  0  0  0  0  0  0  0  0  0  0
   -1.5101    1.2591    0.0708 C   0  0  0  0  0  0  0  0  0  0  0  0
    0.6004   -0.2132    0.5852 C   0  0  0  0  0  0  0  0  0  0  0  0
    0.6953   -1.6159    0.8315 O   0  0  0  0  0  0  0  0  0  0  0  0
    3.5868   -0.0268   -0.7556 H   0  0  0  0  0  0  0  0  0  0  0  0
    2.1919    1.2574    0.4926 H   0  0  0  0  0  0  0  0  0  0  0  0
    0.4106    1.2036   -1.2062 H   0  0  0  0  0  0  0  0  0  0  0  0
   -0.1098   -1.8387   -0.8876 H   0  0  0  0  0  0  0  0  0  0  0  0
   -0.8796   -0.6612   -1.9941 H   0  0  0  0  0  0  0  0  0  0  0  0
   -2.0824    0.0652    1.9216 H   0  0  0  0  0  0  0  0  0  0  0  0
   -2.9108   -0.4893    0.3734 H   0  0  0  0  0  0  0  0  0  0  0  0
   -2.0931    1.5253   -0.8351 H   0  0  0  0  0  0  0  0  0  0  0  0
   -1.2454    2.1053    0.7497 H   0  0  0  0  0  0  0  0  0  0  0  0
    0.7874   -1.6949    1.7921 H   0  0  0  0  0  0  0  0  0  0  0  0
  1  2  1  0
  2  3  1  0
  3  4  1  0
  4  5  1  0
  5  6  1  0
  6  7  1  0
  5  8  1  0
  8  9  1  0
  8  2  1  0
  8  3  1  0
  7  5  1  0
  1 10  1  0
  2 11  1  0
  3 12  1  0
  4 13  1  0
  4 14  1  0
  6 15  1  0
  6 16  1  0
  7 17  1  0
  7 18  1  0
  9 19  1  0
M  END
