
     RDKit          3D

 20 20  0  0  0  0  0  0  0  0999 V2000
    0.9221    2.3069   -0.0499 O   0  0  0  0  0  0  0  0  0  0  0  0
    0.3782    1.0743    0.2519 C   0  0  0  0  0  0  0  0  0  0  0  0
   -1.0882    0.9961    0.0135 C   0  0  0  0  0  0  0  0  0  0  0  0
   -1.6163   -0.3856   -0.0178 C   0  0  0  0  0  0  0  0  0  0  0  0
   -0.6398   -1.4510    0.3688 C   0  0  0  0  0  0  0  0  0  0  0  0
    0.6804   -1.3551   -0.3113 C   0  0  0  0  0  0  0  0  0  0  0  0
    1.1795    0.0360   -0.4879 C   0  0  0  0  0  0  0  0  0  0  0  0
    2.5010    0.1574    0.0057 O   0  0  0  0  0  0  0  0  0  0  0  0
    0.4180    2.8368   -0.6903 H   0  0  0  0  0  0  0  0  0  0  0  0
    0.5727    0.9005    1.3446 H   0  0  0  0  0  0  0  0  0  0  0  0
   -1.4153    1.5252   -0.9169 H   0  0  0  0  0  0  0  0  0  0  0  0
   -1.5908    1.5488    0.8609 H   0  0  0  0  0  0  0  0  0  0  0  0
   -2.0163   -0.6521   -1.0364 H   0  0  0  0  0  0  0  0  0  0  0  0
   -2.5023   -0.5050    0.6751 H   0  0  0  0  0  0  0  0  0  0  0  0
   -0.4861   -1.5175    1.4785 H   0  0  0  0  0  0  0  0  0  0  0  0
   -1.0990   -2.4345    0.0673 H   0  0  0  0  0  0  0  0  0  0  0  0
    0.6528   -1.9461   -1.2704 H   0  0  0  0  0  0  0  0  0  0  0  0
    1.4214   -1.9222    0.3261 H   0  0  0  0  0  0  0  0  0  0  0  0
    1.2549    0.2976   -1.5663 H   0  0  0  0  0  0  0  0  0  0  0  0
    2.4731    0.4894    0.9548 H   0  0  0  0  0  0  0  0  0  0  0  0
  1  2  1  0
  2  3  1  0
  3  4  1  0
  4  5  1  0
  5  6  1  0
  6  7  1  0
  7  8  1  0
  7  2  1  0
  1  9  1  0
  2 10  1  0
  3 11  1  0
  3 12  1  0
  4 13  1  0
  4 14  1  0
  5 15  1  0
  5 16  1  0
  6 17  1  0
  6 18  1  0
  7 19  1  0
  8 20  1  0
M  END
