
     RDKit          3D

 21 22  0  0  0  0  0  0  0  0999 V2000
    1.2857    2.1046   -0.0273 O   0  0  0  0  0  0  0  0  0  0  0  0
    1.1251    0.8131   -0.4919 C   0  0  0  0  0  0  0  0  0  0  0  0
    1.5978   -0.2357    0.4767 C   0  0  0  0  0  0  0  0  0  0  0  0
    0.7015   -1.4421    0.2442 C   0  0  0  0  0  0  0  0  0  0  0  0
   -0.5183   -0.9627   -0.4549 C   0  0  0  0  0  0  0  0  0  0  0  0
   -1.7282   -0.8407    0.4075 C   0  0  0  0  0  0  0  0  0  0  0  0
   -2.3853    0.2952   -0.1215 O   0  0  0  0  0  0  0  0  0  0  0  0
   -1.3158    1.2214   -0.0764 C   0  0  0  0  0  0  0  0  0  0  0  0
   -0.2725    0.4709   -0.8831 C   0  0  0  0  0  0  0  0  0  0  0  0
    1.5174    2.1615    0.9197 H   0  0  0  0  0  0  0  0  0  0  0  0
    1.7638    0.7133   -1.4065 H   0  0  0  0  0  0  0  0  0  0  0  0
    2.6659   -0.5047    0.2674 H   0  0  0  0  0  0  0  0  0  0  0  0
    1.5590    0.1075    1.5215 H   0  0  0  0  0  0  0  0  0  0  0  0
    0.5250   -2.0257    1.1549 H   0  0  0  0  0  0  0  0  0  0  0  0
    1.2608   -2.1187   -0.4552 H   0  0  0  0  0  0  0  0  0  0  0  0
   -0.7564   -1.6141   -1.3344 H   0  0  0  0  0  0  0  0  0  0  0  0
   -1.5148   -0.5882    1.4605 H   0  0  0  0  0  0  0  0  0  0  0  0
   -2.4484   -1.6783    0.3007 H   0  0  0  0  0  0  0  0  0  0  0  0
   -1.0389    1.2998    0.9844 H   0  0  0  0  0  0  0  0  0  0  0  0
   -1.5986    2.1829   -0.5364 H   0  0  0  0  0  0  0  0  0  0  0  0
   -0.4248    0.6406   -1.9502 H   0  0  0  0  0  0  0  0  0  0  0  0
  1  2  1  0
  2  3  1  0
  3  4  1  0
  4  5  1  0
  5  6  1  0
  6  7  1  0
  7  8  1  0
  8  9  1  0
  9  2  1  0
  9  5  1  0
  1 10  1  0
  2 11  1  0
  3 12  1  0
  3 13  1  0
  4 14  1  0
  4 15  1  0
  5 16  1  0
  6 17  1  0
  6 18  1  0
  8 19  1  0
  8 20  1  0
  9 21  1  0
M  END
