
     RDKit          3D

 19 19  0  0  0  0  0  0  0  0999 V2000
   -2.4255   -1.1349    0.8442 O   0  0  0  0  0  0  0  0  0  0  0  0
   -1.1587   -0.5546    0.6184 C   0  0  0  0  0  0  0  0  0  0  0  0
   -0.3176   -1.5930    0.0110 C   0  0  0  0  0  0  0  0  0  0  0  0
    0.9598   -1.6061   -0.3438 C   0  0  0  0  0  0  0  0  0  0  0  0
    2.0557   -0.6387   -0.2929 C   0  0  0  0  0  0  0  0  0  0  0  0
    2.0053    0.6942   -0.2453 C   0  0  0  0  0  0  0  0  0  0  0  0
    0.9784    1.7294   -0.2227 C   0  0  0  0  0  0  0  0  0  0  0  0
   -0.3435    1.6480   -0.2265 C   0  0  0  0  0  0  0  0  0  0  0  0
   -1.3890    0.6422   -0.2514 C   0  0  0  0  0  0  0  0  0  0  0  0
   -2.8594   -0.7689    1.6424 H   0  0  0  0  0  0  0  0  0  0  0  0
   -0.8054   -0.2012    1.5998 H   0  0  0  0  0  0  0  0  0  0  0  0
   -0.8146   -2.5512   -0.2006 H   0  0  0  0  0  0  0  0  0  0  0  0
    1.3020   -2.5447   -0.7780 H   0  0  0  0  0  0  0  0  0  0  0  0
    3.0546   -1.0618   -0.2941 H   0  0  0  0  0  0  0  0  0  0  0  0
    3.0234    1.1168   -0.2153 H   0  0  0  0  0  0  0  0  0  0  0  0
    1.3932    2.7280   -0.1988 H   0  0  0  0  0  0  0  0  0  0  0  0
   -0.7551    2.6484   -0.2054 H   0  0  0  0  0  0  0  0  0  0  0  0
   -1.5607    0.3472   -1.3201 H   0  0  0  0  0  0  0  0  0  0  0  0
   -2.3430    1.1010    0.0792 H   0  0  0  0  0  0  0  0  0  0  0  0
  1  2  1  0
  2  3  1  0
  3  4  2  3
  4  5  1  0
  5  6  2  3
  6  7  1  0
  7  8  2  3
  8  9  1  0
  9  2  1  0
  1 10  1  0
  2 11  1  0
  3 12  1  0
  4 13  1  0
  5 14  1  0
  6 15  1  0
  7 16  1  0
  8 17  1  0
  9 18  1  0
  9 19  1  0
M  END
