
     RDKit          3D

 17 19  0  0  0  0  0  0  0  0999 V2000
    1.6842    0.4949   -1.5476 O   0  0  0  0  0  0  0  0  0  0  0  0
    1.1175   -0.5582   -0.8018 C   0  0  0  0  0  0  0  0  0  0  0  0
    1.5133   -0.6135    0.6843 C   0  0  0  0  0  0  0  0  0  0  0  0
    0.1769   -0.2198    0.2293 C   0  0  0  0  0  0  0  0  0  0  0  0
   -0.3477    1.1840    0.4705 C   0  0  0  0  0  0  0  0  0  0  0  0
   -1.5973    1.1564    0.0099 C   0  0  0  0  0  0  0  0  0  0  0  0
   -1.8621   -0.1632   -0.4973 C   0  0  0  0  0  0  0  0  0  0  0  0
   -2.1420   -1.3468   -0.0326 O   0  0  0  0  0  0  0  0  0  0  0  0
   -1.0834   -0.9301    0.5930 C   0  0  0  0  0  0  0  0  0  0  0  0
    2.5358    0.7698   -1.0922 H   0  0  0  0  0  0  0  0  0  0  0  0
    1.0309   -1.5120   -1.3369 H   0  0  0  0  0  0  0  0  0  0  0  0
    2.1590    0.2039    1.0716 H   0  0  0  0  0  0  0  0  0  0  0  0
    1.5992   -1.6135    1.1538 H   0  0  0  0  0  0  0  0  0  0  0  0
    0.2193    1.9812    0.9203 H   0  0  0  0  0  0  0  0  0  0  0  0
   -2.2232    2.0651    0.0668 H   0  0  0  0  0  0  0  0  0  0  0  0
   -1.4356   -0.2608   -1.5543 H   0  0  0  0  0  0  0  0  0  0  0  0
   -1.3448   -0.6374    1.6633 H   0  0  0  0  0  0  0  0  0  0  0  0
  1  2  1  0
  2  3  1  0
  3  4  1  0
  4  5  1  0
  5  6  2  0
  6  7  1  0
  7  8  1  0
  8  9  1  0
  4  2  1  0
  9  7  1  0
  9  4  1  0
  1 10  1  0
  2 11  1  0
  3 12  1  0
  3 13  1  0
  5 14  1  0
  6 15  1  0
  7 16  1  0
  9 17  1  0
M  END
