
     RDKit          3D

 21 23  0  0  0  0  0  0  0  0999 V2000
    2.5864    0.5676    1.1605 O   0  0  0  0  0  0  0  0  0  0  0  0
    1.6192    0.4381    0.1900 C   0  0  0  0  0  0  0  0  0  0  0  0
    1.5305   -0.8749   -0.5171 C   0  0  0  0  0  0  0  0  0  0  0  0
    0.1849   -1.1607    0.0907 C   0  0  0  0  0  0  0  0  0  0  0  0
   -0.9935   -1.0612   -0.8301 C   0  0  0  0  0  0  0  0  0  0  0  0
   -1.5406    0.3436   -0.6992 C   0  0  0  0  0  0  0  0  0  0  0  0
   -2.1949    0.8062    0.5374 C   0  0  0  0  0  0  0  0  0  0  0  0
   -0.7667    1.0535    0.3266 C   0  0  0  0  0  0  0  0  0  0  0  0
    0.2761    0.1208    0.8456 C   0  0  0  0  0  0  0  0  0  0  0  0
    3.3027    1.1852    0.8627 H   0  0  0  0  0  0  0  0  0  0  0  0
    1.6148    1.3162   -0.4716 H   0  0  0  0  0  0  0  0  0  0  0  0
    1.5150   -0.7557   -1.6237 H   0  0  0  0  0  0  0  0  0  0  0  0
    2.3545   -1.5545   -0.2049 H   0  0  0  0  0  0  0  0  0  0  0  0
    0.2159   -2.0975    0.6630 H   0  0  0  0  0  0  0  0  0  0  0  0
   -1.7763   -1.8055   -0.5716 H   0  0  0  0  0  0  0  0  0  0  0  0
   -0.6758   -1.2186   -1.8740 H   0  0  0  0  0  0  0  0  0  0  0  0
   -1.7781    0.8796   -1.6501 H   0  0  0  0  0  0  0  0  0  0  0  0
   -2.5252    0.0958    1.3333 H   0  0  0  0  0  0  0  0  0  0  0  0
   -2.8690    1.6817    0.4388 H   0  0  0  0  0  0  0  0  0  0  0  0
   -0.3963    2.0834    0.0660 H   0  0  0  0  0  0  0  0  0  0  0  0
    0.3164   -0.0432    1.9279 H   0  0  0  0  0  0  0  0  0  0  0  0
  1  2  1  0
  2  3  1  0
  3  4  1  0
  4  5  1  0
  5  6  1  0
  6  7  1  0
  7  8  1  0
  8  9  1  0
  9  2  1  0
  9  4  1  0
  8  6  1  0
  1 10  1  0
  2 11  1  0
  3 12  1  0
  3 13  1  0
  4 14  1  0
  5 15  1  0
  5 16  1  0
  6 17  1  0
  7 18  1  0
  7 19  1  0
  8 20  1  0
  9 21  1  0
M  END
