
     RDKit          3D

 18 18  0  0  0  0  0  0  0  0999 V2000
    2.7967   -0.5560   -0.0805 O   0  0  0  0  0  0  0  0  0  0  0  0
    1.4912   -0.2848    0.3904 C   0  0  0  0  0  0  0  0  0  0  0  0
    0.5774   -1.3941    0.1131 C   0  0  0  0  0  0  0  0  0  0  0  0
   -0.7222   -1.3257   -0.1146 C   0  0  0  0  0  0  0  0  0  0  0  0
   -1.7242   -0.2631   -0.1879 C   0  0  0  0  0  0  0  0  0  0  0  0
   -1.3433    0.9990    0.4971 C   0  0  0  0  0  0  0  0  0  0  0  0
   -0.1187    1.5500   -0.1855 C   0  0  0  0  0  0  0  0  0  0  0  0
    1.0871    1.0062   -0.2323 C   0  0  0  0  0  0  0  0  0  0  0  0
    2.6883   -0.7933   -1.0385 H   0  0  0  0  0  0  0  0  0  0  0  0
    1.5919   -0.0876    1.4988 H   0  0  0  0  0  0  0  0  0  0  0  0
    1.0432   -2.3824    0.0971 H   0  0  0  0  0  0  0  0  0  0  0  0
   -1.1525   -2.3266   -0.2936 H   0  0  0  0  0  0  0  0  0  0  0  0
   -2.0294   -0.0547   -1.2515 H   0  0  0  0  0  0  0  0  0  0  0  0
   -2.6578   -0.6445    0.2960 H   0  0  0  0  0  0  0  0  0  0  0  0
   -1.0292    0.7433    1.5352 H   0  0  0  0  0  0  0  0  0  0  0  0
   -2.1241    1.7484    0.4399 H   0  0  0  0  0  0  0  0  0  0  0  0
   -0.2041    2.4859   -0.6988 H   0  0  0  0  0  0  0  0  0  0  0  0
    1.8298    1.5799   -0.7843 H   0  0  0  0  0  0  0  0  0  0  0  0
  1  2  1  0
  2  3  1  0
  3  4  2  0
  4  5  1  0
  5  6  1  0
  6  7  1  0
  7  8  2  0
  8  2  1  0
  1  9  1  0
  2 10  1  0
  3 11  1  0
  4 12  1  0
  5 13  1  0
  5 14  1  0
  6 15  1  0
  6 16  1  0
  7 17  1  0
  8 18  1  0
M  END
