
     RDKit          3D

 19 20  0  0  0  0  0  0  0  0999 V2000
    2.3231   -1.0120    0.5684 O   0  0  0  0  0  0  0  0  0  0  0  0
    1.2856   -0.5830   -0.2521 C   0  0  0  0  0  0  0  0  0  0  0  0
    1.3560    0.8667   -0.5488 C   0  0  0  0  0  0  0  0  0  0  0  0
    0.2700    1.6136   -0.4139 C   0  0  0  0  0  0  0  0  0  0  0  0
   -0.9666    0.9424    0.0305 C   0  0  0  0  0  0  0  0  0  0  0  0
   -0.5862    0.1381    1.2747 C   0  0  0  0  0  0  0  0  0  0  0  0
   -0.0705   -0.9218    0.3098 C   0  0  0  0  0  0  0  0  0  0  0  0
   -1.1090   -0.4124   -0.6757 C   0  0  0  0  0  0  0  0  0  0  0  0
   -2.3850   -0.9275   -0.4989 O   0  0  0  0  0  0  0  0  0  0  0  0
    2.4823   -0.3642    1.3013 H   0  0  0  0  0  0  0  0  0  0  0  0
    1.3915   -1.1296   -1.2125 H   0  0  0  0  0  0  0  0  0  0  0  0
    2.2957    1.2970   -0.8725 H   0  0  0  0  0  0  0  0  0  0  0  0
    0.2413    2.6730   -0.6090 H   0  0  0  0  0  0  0  0  0  0  0  0
   -1.8723    1.5296    0.1038 H   0  0  0  0  0  0  0  0  0  0  0  0
    0.2051    0.5987    1.8897 H   0  0  0  0  0  0  0  0  0  0  0  0
   -1.4535   -0.2831    1.8224 H   0  0  0  0  0  0  0  0  0  0  0  0
   -0.1850   -1.9519    0.6389 H   0  0  0  0  0  0  0  0  0  0  0  0
   -0.7415   -0.3812   -1.7106 H   0  0  0  0  0  0  0  0  0  0  0  0
   -2.4812   -1.6922   -1.1458 H   0  0  0  0  0  0  0  0  0  0  0  0
  1  2  1  0
  2  3  1  0
  3  4  2  0
  4  5  1  0
  5  6  1  0
  6  7  1  0
  7  8  1  0
  8  9  1  0
  7  2  1  0
  8  5  1  0
  1 10  1  0
  2 11  1  0
  3 12  1  0
  4 13  1  0
  5 14  1  0
  6 15  1  0
  6 16  1  0
  7 17  1  0
  8 18  1  0
  9 19  1  0
M  END
