
     RDKit          3D

 16 16  0  0  0  0  0  0  0  0999 V2000
    0.3105   -0.7409    1.5270 O   0  0  0  0  0  0  0  0  0  0  0  0
    0.0209   -0.9872    0.1950 C   0  0  0  0  0  0  0  0  0  0  0  0
    0.8977   -0.1018   -0.7055 C   0  0  0  0  0  0  0  0  0  0  0  0
    2.1497    0.1512   -0.2292 O   0  0  0  0  0  0  0  0  0  0  0  0
   -0.0889    1.0019   -0.2858 C   0  0  0  0  0  0  0  0  0  0  0  0
    0.2156    1.3757    1.0235 O   0  0  0  0  0  0  0  0  0  0  0  0
   -1.1227   -0.1242   -0.3640 C   0  0  0  0  0  0  0  0  0  0  0  0
   -2.2043    0.0086    0.4556 O   0  0  0  0  0  0  0  0  0  0  0  0
    1.2832   -0.7097    1.6781 H   0  0  0  0  0  0  0  0  0  0  0  0
   -0.0341   -2.0353   -0.1151 H   0  0  0  0  0  0  0  0  0  0  0  0
    0.7896   -0.3351   -1.7829 H   0  0  0  0  0  0  0  0  0  0  0  0
    2.7057   -0.6717   -0.2341 H   0  0  0  0  0  0  0  0  0  0  0  0
   -0.2123    1.8052   -1.0015 H   0  0  0  0  0  0  0  0  0  0  0  0
   -0.4070    2.0721    1.3134 H   0  0  0  0  0  0  0  0  0  0  0  0
   -1.2910   -0.4089   -1.4065 H   0  0  0  0  0  0  0  0  0  0  0  0
   -3.0125   -0.2999   -0.0679 H   0  0  0  0  0  0  0  0  0  0  0  0
  1  2  1  0
  2  3  1  0
  3  4  1  0
  3  5  1  0
  5  6  1  0
  5  7  1  0
  7  8  1  0
  7  2  1  0
  1  9  1  0
  2 10  1  0
  3 11  1  0
  4 12  1  0
  5 13  1  0
  6 14  1  0
  7 15  1  0
  8 16  1  0
M  END
