
     RDKit          3D

 12 13  0  0  0  0  0  0  0  0999 V2000
    2.1988    0.1462   -0.3789 O   0  0  0  0  0  0  0  0  0  0  0  0
    1.0338   -0.0438    0.3110 C   0  0  0  0  0  0  0  0  0  0  0  0
   -0.2186    0.3631   -0.3890 C   0  0  0  0  0  0  0  0  0  0  0  0
   -1.4775    0.2038    0.4276 C   0  0  0  0  0  0  0  0  0  0  0  0
   -1.1514   -1.1669    0.5262 O   0  0  0  0  0  0  0  0  0  0  0  0
    0.0585   -1.0860   -0.1313 C   0  0  0  0  0  0  0  0  0  0  0  0
    2.2534    1.1130   -0.6457 H   0  0  0  0  0  0  0  0  0  0  0  0
    1.0344    0.2166    1.3947 H   0  0  0  0  0  0  0  0  0  0  0  0
   -0.2343    0.7808   -1.3886 H   0  0  0  0  0  0  0  0  0  0  0  0
   -1.3367    0.7452    1.4038 H   0  0  0  0  0  0  0  0  0  0  0  0
   -2.4041    0.4260   -0.1019 H   0  0  0  0  0  0  0  0  0  0  0  0
    0.2437   -1.6981   -1.0280 H   0  0  0  0  0  0  0  0  0  0  0  0
  1  2  1  0
  2  3  1  0
  3  4  1  0
  4  5  1  0
  5  6  1  0
  6  2  1  0
  6  3  1  0
  1  7  1  0
  2  8  1  0
  3  9  1  0
  4 10  1  0
  4 11  1  0
  6 12  1  0
M  END
