
     RDKit          3D

 19 20  0  0  0  0  0  0  0  0999 V2000
    2.0494   -0.8480   -0.6266 O   0  0  0  0  0  0  0  0  0  0  0  0
    1.2017   -0.6677    0.4567 C   0  0  0  0  0  0  0  0  0  0  0  0
    1.4135    0.6348    1.2192 C   0  0  0  0  0  0  0  0  0  0  0  0
    0.2154    1.2289    0.4688 C   0  0  0  0  0  0  0  0  0  0  0  0
    0.7043    2.0683   -0.5526 O   0  0  0  0  0  0  0  0  0  0  0  0
   -0.1136   -0.1362    0.0198 C   0  0  0  0  0  0  0  0  0  0  0  0
   -0.7695   -0.4013   -1.2390 C   0  0  0  0  0  0  0  0  0  0  0  0
   -1.3791   -0.8081    0.1160 C   0  0  0  0  0  0  0  0  0  0  0  0
   -2.5619   -0.1974    0.5017 O   0  0  0  0  0  0  0  0  0  0  0  0
    1.4990   -1.3265   -1.3230 H   0  0  0  0  0  0  0  0  0  0  0  0
    1.1461   -1.5637    1.0924 H   0  0  0  0  0  0  0  0  0  0  0  0
    1.1082    0.5105    2.2841 H   0  0  0  0  0  0  0  0  0  0  0  0
    2.3634    1.1374    1.0480 H   0  0  0  0  0  0  0  0  0  0  0  0
   -0.5155    1.7399    1.0963 H   0  0  0  0  0  0  0  0  0  0  0  0
    0.0838    2.0587   -1.3330 H   0  0  0  0  0  0  0  0  0  0  0  0
   -1.3202    0.4354   -1.7226 H   0  0  0  0  0  0  0  0  0  0  0  0
   -0.4528   -1.1947   -1.9256 H   0  0  0  0  0  0  0  0  0  0  0  0
   -1.3611   -1.9269    0.2703 H   0  0  0  0  0  0  0  0  0  0  0  0
   -3.3110   -0.7434    0.1489 H   0  0  0  0  0  0  0  0  0  0  0  0
  1  2  1  0
  2  3  1  0
  3  4  1  0
  4  5  1  0
  4  6  1  0
  6  7  1  0
  7  8  1  0
  8  9  1  0
  6  2  1  0
  8  6  1  0
  1 10  1  0
  2 11  1  0
  3 12  1  0
  3 13  1  0
  4 14  1  0
  5 15  1  0
  7 16  1  0
  7 17  1  0
  8 18  1  0
  9 19  1  0
M  END
