
     RDKit          3D

 19 20  0  0  0  0  0  0  0  0999 V2000
    1.8506   -1.4833   -0.6639 O   0  0  0  0  0  0  0  0  0  0  0  0
    1.4290   -0.4701    0.1649 C   0  0  0  0  0  0  0  0  0  0  0  0
    1.7901    0.8797   -0.4598 C   0  0  0  0  0  0  0  0  0  0  0  0
    0.4866    1.0939   -0.8645 O   0  0  0  0  0  0  0  0  0  0  0  0
    0.0785    0.0737   -0.0325 C   0  0  0  0  0  0  0  0  0  0  0  0
   -0.9264   -0.8072   -0.7473 C   0  0  0  0  0  0  0  0  0  0  0  0
   -2.1792   -0.0187   -0.5244 C   0  0  0  0  0  0  0  0  0  0  0  0
   -2.0479    0.7234    0.5657 C   0  0  0  0  0  0  0  0  0  0  0  0
   -0.7059    0.5005    1.1663 C   0  0  0  0  0  0  0  0  0  0  0  0
    2.4861   -2.0477   -0.1345 H   0  0  0  0  0  0  0  0  0  0  0  0
    1.8232   -0.5070    1.2120 H   0  0  0  0  0  0  0  0  0  0  0  0
    2.4612    0.8172   -1.3298 H   0  0  0  0  0  0  0  0  0  0  0  0
    2.0932    1.6389    0.2965 H   0  0  0  0  0  0  0  0  0  0  0  0
   -0.6868   -0.9415   -1.7990 H   0  0  0  0  0  0  0  0  0  0  0  0
   -1.0252   -1.7636   -0.1764 H   0  0  0  0  0  0  0  0  0  0  0  0
   -3.0352   -0.0810   -1.1834 H   0  0  0  0  0  0  0  0  0  0  0  0
   -2.7862    1.3934    0.9743 H   0  0  0  0  0  0  0  0  0  0  0  0
   -0.8021   -0.3783    1.8507 H   0  0  0  0  0  0  0  0  0  0  0  0
   -0.3037    1.3775    1.6850 H   0  0  0  0  0  0  0  0  0  0  0  0
  1  2  1  0
  2  3  1  0
  3  4  1  0
  4  5  1  0
  5  6  1  0
  6  7  1  0
  7  8  2  0
  8  9  1  0
  5  2  1  0
  9  5  1  0
  1 10  1  0
  2 11  1  0
  3 12  1  0
  3 13  1  0
  6 14  1  0
  6 15  1  0
  7 16  1  0
  8 17  1  0
  9 18  1  0
  9 19  1  0
M  END
