
     RDKit          3D

 17 19  0  0  0  0  0  0  0  0999 V2000
   -2.1995    0.6815   -0.8293 O   0  0  0  0  0  0  0  0  0  0  0  0
   -1.5790   -0.3732   -0.1563 C   0  0  0  0  0  0  0  0  0  0  0  0
   -0.4839   -0.8547   -1.0958 C   0  0  0  0  0  0  0  0  0  0  0  0
    0.6763   -0.4543   -0.7482 C   0  0  0  0  0  0  0  0  0  0  0  0
    2.0310   -0.0440   -0.4239 C   0  0  0  0  0  0  0  0  0  0  0  0
    1.9326    0.1908    1.0171 O   0  0  0  0  0  0  0  0  0  0  0  0
    0.6307   -0.1364    1.3752 C   0  0  0  0  0  0  0  0  0  0  0  0
    0.1709    0.7426    0.2007 C   0  0  0  0  0  0  0  0  0  0  0  0
   -0.7390    0.1533    1.0192 C   0  0  0  0  0  0  0  0  0  0  0  0
   -2.2861    1.4689   -0.2056 H   0  0  0  0  0  0  0  0  0  0  0  0
   -2.2473   -1.1732    0.1343 H   0  0  0  0  0  0  0  0  0  0  0  0
   -0.7474   -1.4880   -1.9732 H   0  0  0  0  0  0  0  0  0  0  0  0
    2.8063   -0.8123   -0.5884 H   0  0  0  0  0  0  0  0  0  0  0  0
    2.2622    0.9296   -0.8449 H   0  0  0  0  0  0  0  0  0  0  0  0
    0.6716   -1.2423    1.3844 H   0  0  0  0  0  0  0  0  0  0  0  0
    0.4810    1.7025    0.0041 H   0  0  0  0  0  0  0  0  0  0  0  0
   -1.3804    0.7090    1.7306 H   0  0  0  0  0  0  0  0  0  0  0  0
  1  2  1  0
  2  3  1  0
  3  4  2  0
  4  5  1  0
  5  6  1  0
  6  7  1  0
  7  8  1  0
  8  9  1  0
  9  2  1  0
  8  4  1  0
  9  7  1  0
  1 10  1  0
  2 11  1  0
  3 12  1  0
  5 13  1  0
  5 14  1  0
  7 15  1  0
  8 16  1  0
  9 17  1  0
M  END
