
     RDKit          3D

 16 18  0  0  0  0  0  0  0  0999 V2000
    2.4430    0.4822   -0.0535 O   0  0  0  0  0  0  0  0  0  0  0  0
    1.3529    0.0702    0.6677 C   0  0  0  0  0  0  0  0  0  0  0  0
    0.4038   -0.8632   -0.0247 C   0  0  0  0  0  0  0  0  0  0  0  0
   -0.6454   -0.3371    0.9119 C   0  0  0  0  0  0  0  0  0  0  0  0
   -1.8755   -0.2973    0.0969 C   0  0  0  0  0  0  0  0  0  0  0  0
   -1.4363    0.1176   -1.0930 C   0  0  0  0  0  0  0  0  0  0  0  0
    0.0102    0.2978   -0.8791 C   0  0  0  0  0  0  0  0  0  0  0  0
    0.1056    0.8882    0.4942 C   0  0  0  0  0  0  0  0  0  0  0  0
    2.4842    0.0980   -0.9788 H   0  0  0  0  0  0  0  0  0  0  0  0
    1.5032   -0.2176    1.7072 H   0  0  0  0  0  0  0  0  0  0  0  0
    0.5613   -1.8120   -0.2957 H   0  0  0  0  0  0  0  0  0  0  0  0
   -0.6694   -0.6454    1.9237 H   0  0  0  0  0  0  0  0  0  0  0  0
   -2.8705   -0.5544    0.4366 H   0  0  0  0  0  0  0  0  0  0  0  0
   -1.9548    0.2985   -2.0252 H   0  0  0  0  0  0  0  0  0  0  0  0
    0.6386    0.6395   -1.6598 H   0  0  0  0  0  0  0  0  0  0  0  0
   -0.0508    1.8352    0.7717 H   0  0  0  0  0  0  0  0  0  0  0  0
  1  2  1  0
  2  3  1  0
  3  4  1  0
  4  5  1  0
  5  6  2  0
  6  7  1  0
  7  8  1  0
  8  2  1  0
  7  3  1  0
  8  4  1  0
  1  9  1  0
  2 10  1  0
  3 11  1  0
  4 12  1  0
  5 13  1  0
  6 14  1  0
  7 15  1  0
  8 16  1  0
M  END
