
     RDKit          3D

 21 22  0  0  0  0  0  0  0  0999 V2000
   -3.1046   -0.4054   -0.4564 O   0  0  0  0  0  0  0  0  0  0  0  0
   -2.1330   -0.5745    0.5179 C   0  0  0  0  0  0  0  0  0  0  0  0
   -1.2550    0.6859    0.6006 C   0  0  0  0  0  0  0  0  0  0  0  0
   -0.6187    0.1491   -0.6492 C   0  0  0  0  0  0  0  0  0  0  0  0
    0.7983    0.5262   -0.9070 C   0  0  0  0  0  0  0  0  0  0  0  0
    1.7518    0.1000    0.1411 C   0  0  0  0  0  0  0  0  0  0  0  0
    3.1551    0.3688    0.0715 C   0  0  0  0  0  0  0  0  0  0  0  0
    2.6861   -0.9230   -0.3754 O   0  0  0  0  0  0  0  0  0  0  0  0
   -0.8832   -1.2210   -0.1026 C   0  0  0  0  0  0  0  0  0  0  0  0
   -3.4634    0.5154   -0.4655 H   0  0  0  0  0  0  0  0  0  0  0  0
   -2.4391   -0.9841    1.4728 H   0  0  0  0  0  0  0  0  0  0  0  0
   -1.8197    1.6294    0.4961 H   0  0  0  0  0  0  0  0  0  0  0  0
   -0.6421    0.5975    1.5256 H   0  0  0  0  0  0  0  0  0  0  0  0
   -1.2539    0.3475   -1.5216 H   0  0  0  0  0  0  0  0  0  0  0  0
    1.0789    0.1368   -1.9004 H   0  0  0  0  0  0  0  0  0  0  0  0
    0.8073    1.6523   -1.0016 H   0  0  0  0  0  0  0  0  0  0  0  0
    1.3284   -0.2903    1.0896 H   0  0  0  0  0  0  0  0  0  0  0  0
    3.7762    0.2736    0.9750 H   0  0  0  0  0  0  0  0  0  0  0  0
    3.5793    0.9767   -0.7475 H   0  0  0  0  0  0  0  0  0  0  0  0
   -0.2328   -1.5514    0.7331 H   0  0  0  0  0  0  0  0  0  0  0  0
   -1.1159   -2.0096   -0.8418 H   0  0  0  0  0  0  0  0  0  0  0  0
  1  2  1  0
  2  3  1  0
  3  4  1  0
  4  5  1  0
  5  6  1  0
  6  7  1  0
  7  8  1  0
  4  9  1  0
  9  2  1  0
  8  6  1  0
  1 10  1  0
  2 11  1  0
  3 12  1  0
  3 13  1  0
  4 14  1  0
  5 15  1  0
  5 16  1  0
  6 17  1  0
  7 18  1  0
  7 19  1  0
  9 20  1  0
  9 21  1  0
M  END
