
     RDKit          3D

 23 24  0  0  0  0  0  0  0  0999 V2000
    3.0076    0.8144    0.1378 O   0  0  0  0  0  0  0  0  0  0  0  0
    1.8542    0.2426   -0.4184 C   0  0  0  0  0  0  0  0  0  0  0  0
    1.6571   -1.1481    0.1518 C   0  0  0  0  0  0  0  0  0  0  0  0
    0.1536   -1.3603    0.0797 C   0  0  0  0  0  0  0  0  0  0  0  0
   -0.4750   -0.0042    0.0888 C   0  0  0  0  0  0  0  0  0  0  0  0
   -1.4622    0.2882    1.1641 C   0  0  0  0  0  0  0  0  0  0  0  0
   -2.4507    0.7224    0.0904 C   0  0  0  0  0  0  0  0  0  0  0  0
   -1.5176    0.2141   -0.9731 C   0  0  0  0  0  0  0  0  0  0  0  0
    0.6595    0.9850    0.1049 C   0  0  0  0  0  0  0  0  0  0  0  0
    3.6297    0.0509    0.3080 H   0  0  0  0  0  0  0  0  0  0  0  0
    1.8863    0.2208   -1.5202 H   0  0  0  0  0  0  0  0  0  0  0  0
    1.9776   -1.1823    1.2128 H   0  0  0  0  0  0  0  0  0  0  0  0
    2.2141   -1.8399   -0.5016 H   0  0  0  0  0  0  0  0  0  0  0  0
   -0.2070   -2.0339    0.8699 H   0  0  0  0  0  0  0  0  0  0  0  0
   -0.0565   -1.8310   -0.9147 H   0  0  0  0  0  0  0  0  0  0  0  0
   -1.2117    1.1773    1.8001 H   0  0  0  0  0  0  0  0  0  0  0  0
   -1.8030   -0.5433    1.7928 H   0  0  0  0  0  0  0  0  0  0  0  0
   -2.6785    1.7981    0.0761 H   0  0  0  0  0  0  0  0  0  0  0  0
   -3.3552    0.0662    0.1425 H   0  0  0  0  0  0  0  0  0  0  0  0
   -1.8492   -0.7187   -1.4960 H   0  0  0  0  0  0  0  0  0  0  0  0
   -1.2027    0.9520   -1.7374 H   0  0  0  0  0  0  0  0  0  0  0  0
    0.3760    1.8386   -0.5441 H   0  0  0  0  0  0  0  0  0  0  0  0
    0.8537    1.2910    1.1536 H   0  0  0  0  0  0  0  0  0  0  0  0
  1  2  1  0
  2  3  1  0
  3  4  1  0
  4  5  1  0
  5  6  1  0
  6  7  1  0
  7  8  1  0
  5  9  1  0
  9  2  1  0
  8  5  1  0
  1 10  1  0
  2 11  1  0
  3 12  1  0
  3 13  1  0
  4 14  1  0
  4 15  1  0
  6 16  1  0
  6 17  1  0
  7 18  1  0
  7 19  1  0
  8 20  1  0
  8 21  1  0
  9 22  1  0
  9 23  1  0
M  END
