
     RDKit          3D

 17 19  0  0  0  0  0  0  0  0999 V2000
    2.4154    0.2471   -0.2024 O   0  0  0  0  0  0  0  0  0  0  0  0
    1.1616   -0.0900    0.2154 C   0  0  0  0  0  0  0  0  0  0  0  0
    0.2219    1.0692    0.3886 C   0  0  0  0  0  0  0  0  0  0  0  0
   -1.0364    0.4726    1.0260 C   0  0  0  0  0  0  0  0  0  0  0  0
   -1.4185   -0.5233   -0.0779 C   0  0  0  0  0  0  0  0  0  0  0  0
   -0.5903   -1.6558   -0.1061 O   0  0  0  0  0  0  0  0  0  0  0  0
    0.3880   -0.9442   -0.7560 C   0  0  0  0  0  0  0  0  0  0  0  0
   -0.6719    0.0087   -1.2440 C   0  0  0  0  0  0  0  0  0  0  0  0
   -0.2161    1.2977   -0.9020 O   0  0  0  0  0  0  0  0  0  0  0  0
    3.1274   -0.0870    0.4277 H   0  0  0  0  0  0  0  0  0  0  0  0
    1.2202   -0.6098    1.2003 H   0  0  0  0  0  0  0  0  0  0  0  0
    0.6133    1.9182    0.9155 H   0  0  0  0  0  0  0  0  0  0  0  0
   -1.8403    1.2005    1.1267 H   0  0  0  0  0  0  0  0  0  0  0  0
   -0.7692   -0.0502    1.9649 H   0  0  0  0  0  0  0  0  0  0  0  0
   -2.4784   -0.7263   -0.1738 H   0  0  0  0  0  0  0  0  0  0  0  0
    0.9300   -1.4069   -1.5647 H   0  0  0  0  0  0  0  0  0  0  0  0
   -1.0566   -0.1208   -2.2381 H   0  0  0  0  0  0  0  0  0  0  0  0
  1  2  1  0
  2  3  1  0
  3  4  1  0
  4  5  1  0
  5  6  1  0
  6  7  1  0
  7  8  1  0
  8  9  1  0
  7  2  1  0
  9  3  1  0
  8  5  1  0
  1 10  1  0
  2 11  1  0
  3 12  1  0
  4 13  1  0
  4 14  1  0
  5 15  1  0
  7 16  1  0
  8 17  1  0
M  END
