
     RDKit          3D

 19 20  0  0  0  0  0  0  0  0999 V2000
   -2.4573    0.0142   -0.2148 O   0  0  0  0  0  0  0  0  0  0  0  0
   -1.1490   -0.0090   -0.6930 C   0  0  0  0  0  0  0  0  0  0  0  0
   -0.5938    1.3784   -0.4323 C   0  0  0  0  0  0  0  0  0  0  0  0
    0.6142    1.5897    0.0739 C   0  0  0  0  0  0  0  0  0  0  0  0
    1.5537    0.4797    0.4398 C   0  0  0  0  0  0  0  0  0  0  0  0
    1.1301   -0.6331   -0.4212 C   0  0  0  0  0  0  0  0  0  0  0  0
    0.6136   -1.9253   -0.1825 C   0  0  0  0  0  0  0  0  0  0  0  0
   -0.3203   -0.9043    0.1322 C   0  0  0  0  0  0  0  0  0  0  0  0
   -0.5133   -0.6605    1.5134 O   0  0  0  0  0  0  0  0  0  0  0  0
   -2.6297    0.7616    0.4091 H   0  0  0  0  0  0  0  0  0  0  0  0
   -1.1195   -0.2459   -1.7680 H   0  0  0  0  0  0  0  0  0  0  0  0
   -1.2710    2.1898   -0.6959 H   0  0  0  0  0  0  0  0  0  0  0  0
    0.9394    2.6082    0.2311 H   0  0  0  0  0  0  0  0  0  0  0  0
    1.3528    0.2749    1.5269 H   0  0  0  0  0  0  0  0  0  0  0  0
    2.6104    0.8016    0.3097 H   0  0  0  0  0  0  0  0  0  0  0  0
    1.1869   -0.3128   -1.5075 H   0  0  0  0  0  0  0  0  0  0  0  0
    1.0408   -2.5442    0.6349 H   0  0  0  0  0  0  0  0  0  0  0  0
    0.3911   -2.5879   -1.0634 H   0  0  0  0  0  0  0  0  0  0  0  0
   -1.3793   -0.2753    1.7077 H   0  0  0  0  0  0  0  0  0  0  0  0
  1  2  1  0
  2  3  1  0
  3  4  2  0
  4  5  1  0
  5  6  1  0
  6  7  1  0
  7  8  1  0
  8  9  1  0
  8  2  1  0
  8  6  1  0
  1 10  1  0
  2 11  1  0
  3 12  1  0
  4 13  1  0
  5 14  1  0
  5 15  1  0
  6 16  1  0
  7 17  1  0
  7 18  1  0
  9 19  1  0
M  END
