
     RDKit          3D

 14 15  0  0  0  0  0  0  0  0999 V2000
    1.6973    0.5827   -1.0548 O   0  0  0  0  0  0  0  0  0  0  0  0
    1.2668   -0.4462   -0.2034 C   0  0  0  0  0  0  0  0  0  0  0  0
    0.3126   -0.0190    0.8451 C   0  0  0  0  0  0  0  0  0  0  0  0
   -0.7652    0.9421    0.3748 C   0  0  0  0  0  0  0  0  0  0  0  0
   -1.3102   -0.1642   -0.4812 C   0  0  0  0  0  0  0  0  0  0  0  0
   -0.0953   -1.0001   -0.3024 C   0  0  0  0  0  0  0  0  0  0  0  0
    2.2472    1.1991   -0.4786 H   0  0  0  0  0  0  0  0  0  0  0  0
    2.0659   -1.1585    0.0433 H   0  0  0  0  0  0  0  0  0  0  0  0
    0.2907   -0.4285    1.8513 H   0  0  0  0  0  0  0  0  0  0  0  0
   -0.2798    1.7181   -0.2658 H   0  0  0  0  0  0  0  0  0  0  0  0
   -1.4009    1.3120    1.1829 H   0  0  0  0  0  0  0  0  0  0  0  0
   -1.5433    0.1081   -1.5368 H   0  0  0  0  0  0  0  0  0  0  0  0
   -2.2139   -0.6039    0.0279 H   0  0  0  0  0  0  0  0  0  0  0  0
   -0.2720   -2.0416   -0.0022 H   0  0  0  0  0  0  0  0  0  0  0  0
  1  2  1  0
  2  3  1  0
  3  4  1  0
  4  5  1  0
  5  6  1  0
  6  2  1  0
  6  3  1  0
  1  7  1  0
  2  8  1  0
  3  9  1  0
  4 10  1  0
  4 11  1  0
  5 12  1  0
  5 13  1  0
  6 14  1  0
M  END
