
     RDKit          3D

 16 17  0  0  0  0  0  0  0  0999 V2000
    2.0095    0.7535   -0.6922 O   0  0  0  0  0  0  0  0  0  0  0  0
    0.6498    0.8115   -0.4835 C   0  0  0  0  0  0  0  0  0  0  0  0
    0.3958    0.5166    1.0084 C   0  0  0  0  0  0  0  0  0  0  0  0
   -0.2060   -0.8629    0.8150 C   0  0  0  0  0  0  0  0  0  0  0  0
    0.6303   -1.4183   -0.1819 O   0  0  0  0  0  0  0  0  0  0  0  0
    0.0421   -0.4573   -1.0361 C   0  0  0  0  0  0  0  0  0  0  0  0
   -1.2160   -0.6739   -0.2616 C   0  0  0  0  0  0  0  0  0  0  0  0
   -2.0875    0.3708   -0.1468 O   0  0  0  0  0  0  0  0  0  0  0  0
    2.3450   -0.0506   -0.1968 H   0  0  0  0  0  0  0  0  0  0  0  0
    0.1616    1.7231   -0.8108 H   0  0  0  0  0  0  0  0  0  0  0  0
    1.3194    0.5149    1.5856 H   0  0  0  0  0  0  0  0  0  0  0  0
   -0.3021    1.2342    1.4419 H   0  0  0  0  0  0  0  0  0  0  0  0
   -0.4146   -1.4575    1.6702 H   0  0  0  0  0  0  0  0  0  0  0  0
    0.0769   -0.6403   -2.0831 H   0  0  0  0  0  0  0  0  0  0  0  0
   -1.7246   -1.6089   -0.5541 H   0  0  0  0  0  0  0  0  0  0  0  0
   -1.6796    1.2451   -0.0741 H   0  0  0  0  0  0  0  0  0  0  0  0
  1  2  1  0
  2  3  1  0
  3  4  1  0
  4  5  1  0
  5  6  1  0
  6  7  1  0
  7  8  1  0
  6  2  1  0
  7  4  1  0
  1  9  1  0
  2 10  1  0
  3 11  1  0
  3 12  1  0
  4 13  1  0
  6 14  1  0
  7 15  1  0
  8 16  1  0
M  END
