
     RDKit          3D

 19 21  0  0  0  0  0  0  0  0999 V2000
    1.9876   -0.2365    1.1361 O   0  0  0  0  0  0  0  0  0  0  0  0
    1.6488   -0.9024   -0.0512 C   0  0  0  0  0  0  0  0  0  0  0  0
    1.4674   -0.0287   -1.3028 C   0  0  0  0  0  0  0  0  0  0  0  0
    0.2914   -0.6519   -0.6373 C   0  0  0  0  0  0  0  0  0  0  0  0
   -0.6043    0.2188    0.2027 C   0  0  0  0  0  0  0  0  0  0  0  0
   -0.9781   -0.1999    1.5859 C   0  0  0  0  0  0  0  0  0  0  0  0
   -2.2893    0.2715    1.4199 O   0  0  0  0  0  0  0  0  0  0  0  0
   -2.0561    0.2560    0.0450 C   0  0  0  0  0  0  0  0  0  0  0  0
   -1.2308    1.3836   -0.4603 C   0  0  0  0  0  0  0  0  0  0  0  0
    2.7289    0.3726    0.9137 H   0  0  0  0  0  0  0  0  0  0  0  0
    2.1682   -1.8567   -0.1897 H   0  0  0  0  0  0  0  0  0  0  0  0
    1.6971    1.0476   -1.1775 H   0  0  0  0  0  0  0  0  0  0  0  0
    1.8827   -0.4425   -2.2439 H   0  0  0  0  0  0  0  0  0  0  0  0
   -0.1712   -1.5092   -1.1942 H   0  0  0  0  0  0  0  0  0  0  0  0
   -0.4230    0.2683    2.4192 H   0  0  0  0  0  0  0  0  0  0  0  0
   -1.0281   -1.3232    1.6407 H   0  0  0  0  0  0  0  0  0  0  0  0
   -2.5729   -0.4446   -0.6069 H   0  0  0  0  0  0  0  0  0  0  0  0
   -1.3772    2.3476    0.0733 H   0  0  0  0  0  0  0  0  0  0  0  0
   -1.1411    1.4295   -1.5727 H   0  0  0  0  0  0  0  0  0  0  0  0
  1  2  1  0
  2  3  1  0
  3  4  1  0
  4  5  1  0
  5  6  1  0
  6  7  1  0
  7  8  1  0
  8  9  1  0
  4  2  1  0
  8  5  1  0
  9  5  1  0
  1 10  1  0
  2 11  1  0
  3 12  1  0
  3 13  1  0
  4 14  1  0
  6 15  1  0
  6 16  1  0
  8 17  1  0
  9 18  1  0
  9 19  1  0
M  END
