
     RDKit          3D

 21 23  0  0  0  0  0  0  0  0999 V2000
    3.4154    0.5737    0.5625 O   0  0  0  0  0  0  0  0  0  0  0  0
    2.1451    0.7438    0.0034 C   0  0  0  0  0  0  0  0  0  0  0  0
    0.9699    0.6194    0.8749 C   0  0  0  0  0  0  0  0  0  0  0  0
   -0.3216    1.2643    0.3558 C   0  0  0  0  0  0  0  0  0  0  0  0
   -0.9843    0.0666   -0.2911 C   0  0  0  0  0  0  0  0  0  0  0  0
   -2.3711    0.0571   -0.7137 C   0  0  0  0  0  0  0  0  0  0  0  0
   -1.9265   -0.7046    0.5069 C   0  0  0  0  0  0  0  0  0  0  0  0
    0.1432   -0.5366   -1.0710 C   0  0  0  0  0  0  0  0  0  0  0  0
    1.3177   -0.4466   -0.1618 C   0  0  0  0  0  0  0  0  0  0  0  0
    3.3948    0.2503    1.4859 H   0  0  0  0  0  0  0  0  0  0  0  0
    2.1224    1.6078   -0.7111 H   0  0  0  0  0  0  0  0  0  0  0  0
    0.9975    0.2389    1.8990 H   0  0  0  0  0  0  0  0  0  0  0  0
   -0.9107    1.7129    1.1581 H   0  0  0  0  0  0  0  0  0  0  0  0
   -0.0761    1.9681   -0.4753 H   0  0  0  0  0  0  0  0  0  0  0  0
   -2.9935    0.9596   -0.6018 H   0  0  0  0  0  0  0  0  0  0  0  0
   -2.6523   -0.5845   -1.5724 H   0  0  0  0  0  0  0  0  0  0  0  0
   -1.9890   -1.8017    0.5306 H   0  0  0  0  0  0  0  0  0  0  0  0
   -2.2744   -0.2382    1.4614 H   0  0  0  0  0  0  0  0  0  0  0  0
    0.3128    0.1287   -1.9612 H   0  0  0  0  0  0  0  0  0  0  0  0
   -0.0556   -1.5435   -1.4565 H   0  0  0  0  0  0  0  0  0  0  0  0
    1.7364   -1.4056    0.1773 H   0  0  0  0  0  0  0  0  0  0  0  0
  1  2  1  0
  2  3  1  0
  3  4  1  0
  4  5  1  0
  5  6  1  0
  6  7  1  0
  5  8  1  0
  8  9  1  0
  9  2  1  0
  9  3  1  0
  7  5  1  0
  1 10  1  0
  2 11  1  0
  3 12  1  0
  4 13  1  0
  4 14  1  0
  6 15  1  0
  6 16  1  0
  7 17  1  0
  7 18  1  0
  8 19  1  0
  8 20  1  0
  9 21  1  0
M  END
