
     RDKit          3D

 17 19  0  0  0  0  0  0  0  0999 V2000
   -1.5343    1.6999    0.2379 O   0  0  0  0  0  0  0  0  0  0  0  0
   -0.5415    0.8079    0.6899 C   0  0  0  0  0  0  0  0  0  0  0  0
    0.5094    0.6732   -0.3553 C   0  0  0  0  0  0  0  0  0  0  0  0
    1.8732    0.2357    0.1014 C   0  0  0  0  0  0  0  0  0  0  0  0
    1.6245   -1.0938   -0.1644 O   0  0  0  0  0  0  0  0  0  0  0  0
    0.4490   -0.7356   -0.8173 C   0  0  0  0  0  0  0  0  0  0  0  0
   -0.7175   -1.4036   -0.1205 C   0  0  0  0  0  0  0  0  0  0  0  0
   -1.9458   -0.8942   -0.4569 O   0  0  0  0  0  0  0  0  0  0  0  0
   -1.2371   -0.5505    0.8006 C   0  0  0  0  0  0  0  0  0  0  0  0
   -1.5582    1.5637   -0.7570 H   0  0  0  0  0  0  0  0  0  0  0  0
   -0.1798    1.0541    1.6856 H   0  0  0  0  0  0  0  0  0  0  0  0
    0.5066    1.4675   -1.1355 H   0  0  0  0  0  0  0  0  0  0  0  0
    2.6731    0.6066   -0.5897 H   0  0  0  0  0  0  0  0  0  0  0  0
    2.1299    0.4808    1.1515 H   0  0  0  0  0  0  0  0  0  0  0  0
    0.4591   -0.8137   -1.9143 H   0  0  0  0  0  0  0  0  0  0  0  0
   -0.5621   -2.4915    0.0264 H   0  0  0  0  0  0  0  0  0  0  0  0
   -1.9484   -0.6064    1.6175 H   0  0  0  0  0  0  0  0  0  0  0  0
  1  2  1  0
  2  3  1  0
  3  4  1  0
  4  5  1  0
  5  6  1  0
  6  7  1  0
  7  8  1  0
  8  9  1  0
  9  2  1  0
  6  3  1  0
  9  7  1  0
  1 10  1  0
  2 11  1  0
  3 12  1  0
  4 13  1  0
  4 14  1  0
  6 15  1  0
  7 16  1  0
  9 17  1  0
M  END
