
     RDKit          3D

 19 20  0  0  0  0  0  0  0  0999 V2000
    3.2673    0.4161    0.0970 O   0  0  0  0  0  0  0  0  0  0  0  0
    2.0236    0.2417    0.7170 C   0  0  0  0  0  0  0  0  0  0  0  0
    0.9303    1.0548    0.2178 C   0  0  0  0  0  0  0  0  0  0  0  0
   -0.2742    1.2374    0.8418 O   0  0  0  0  0  0  0  0  0  0  0  0
   -1.2831    1.0611   -0.1187 C   0  0  0  0  0  0  0  0  0  0  0  0
   -2.0641   -0.2183    0.1269 C   0  0  0  0  0  0  0  0  0  0  0  0
   -1.1164   -1.3839   -0.1687 C   0  0  0  0  0  0  0  0  0  0  0  0
    0.0557   -1.1696    0.5144 O   0  0  0  0  0  0  0  0  0  0  0  0
    0.9977   -0.4365   -0.1752 C   0  0  0  0  0  0  0  0  0  0  0  0
    3.6160   -0.4777   -0.1617 H   0  0  0  0  0  0  0  0  0  0  0  0
    2.1132   -0.1141    1.7545 H   0  0  0  0  0  0  0  0  0  0  0  0
    1.1322    1.7940   -0.6030 H   0  0  0  0  0  0  0  0  0  0  0  0
   -0.8527    0.9377   -1.1432 H   0  0  0  0  0  0  0  0  0  0  0  0
   -1.9459    1.9515   -0.1847 H   0  0  0  0  0  0  0  0  0  0  0  0
   -2.4294   -0.2223    1.1501 H   0  0  0  0  0  0  0  0  0  0  0  0
   -2.8441   -0.2632   -0.6520 H   0  0  0  0  0  0  0  0  0  0  0  0
   -0.9721   -1.4763   -1.2493 H   0  0  0  0  0  0  0  0  0  0  0  0
   -1.5747   -2.3195    0.2642 H   0  0  0  0  0  0  0  0  0  0  0  0
    1.2208   -0.6129   -1.2273 H   0  0  0  0  0  0  0  0  0  0  0  0
  1  2  1  0
  2  3  1  0
  3  4  1  0
  4  5  1  0
  5  6  1  0
  6  7  1  0
  7  8  1  0
  8  9  1  0
  9  2  1  0
  9  3  1  0
  1 10  1  0
  2 11  1  0
  3 12  1  0
  5 13  1  0
  5 14  1  0
  6 15  1  0
  6 16  1  0
  7 17  1  0
  7 18  1  0
  9 19  1  0
M  END
