
     RDKit          3D

 16 17  0  0  0  0  0  0  0  0999 V2000
   -1.5714   -2.0169    0.2956 O   0  0  0  0  0  0  0  0  0  0  0  0
   -0.8762   -0.9476   -0.2105 C   0  0  0  0  0  0  0  0  0  0  0  0
   -1.4924    0.4216    0.1472 C   0  0  0  0  0  0  0  0  0  0  0  0
   -1.4891    1.3568   -0.8749 O   0  0  0  0  0  0  0  0  0  0  0  0
   -0.1705   -0.0289    0.7109 C   0  0  0  0  0  0  0  0  0  0  0  0
    1.0167    0.7734    0.2320 C   0  0  0  0  0  0  0  0  0  0  0  0
    2.1638   -0.0109   -0.2621 C   0  0  0  0  0  0  0  0  0  0  0  0
    1.3663    0.7262   -1.1133 O   0  0  0  0  0  0  0  0  0  0  0  0
   -1.1195   -2.5167    0.9965 H   0  0  0  0  0  0  0  0  0  0  0  0
   -0.5242   -1.0859   -1.2552 H   0  0  0  0  0  0  0  0  0  0  0  0
   -2.3090    0.4272    0.9006 H   0  0  0  0  0  0  0  0  0  0  0  0
   -1.3726    2.2813   -0.5676 H   0  0  0  0  0  0  0  0  0  0  0  0
   -0.0896   -0.3598    1.7595 H   0  0  0  0  0  0  0  0  0  0  0  0
    1.2014    1.7264    0.7615 H   0  0  0  0  0  0  0  0  0  0  0  0
    2.1041   -1.0977   -0.3996 H   0  0  0  0  0  0  0  0  0  0  0  0
    3.1622    0.3516    0.0408 H   0  0  0  0  0  0  0  0  0  0  0  0
  1  2  1  0
  2  3  1  0
  3  4  1  0
  3  5  1  0
  5  6  1  0
  6  7  1  0
  7  8  1  0
  5  2  1  0
  8  6  1  0
  1  9  1  0
  2 10  1  0
  3 11  1  0
  4 12  1  0
  5 13  1  0
  6 14  1  0
  7 15  1  0
  7 16  1  0
M  END
