
     RDKit          3D

 19 21  0  0  0  0  0  0  0  0999 V2000
   -2.3445    0.5340   -0.3486 O   0  0  0  0  0  0  0  0  0  0  0  0
   -1.3023    0.3721    0.5445 C   0  0  0  0  0  0  0  0  0  0  0  0
   -0.3139    1.5466    0.5806 C   0  0  0  0  0  0  0  0  0  0  0  0
    0.7490    0.6030    0.1590 C   0  0  0  0  0  0  0  0  0  0  0  0
    2.0635    0.8320   -0.0624 C   0  0  0  0  0  0  0  0  0  0  0  0
    1.6998    0.2648    1.2554 O   0  0  0  0  0  0  0  0  0  0  0  0
   -0.2010   -0.4671   -0.0362 C   0  0  0  0  0  0  0  0  0  0  0  0
   -0.0334   -1.8836    0.2209 C   0  0  0  0  0  0  0  0  0  0  0  0
   -0.3722   -1.3208   -1.1990 C   0  0  0  0  0  0  0  0  0  0  0  0
   -2.0023    0.9668   -1.1715 H   0  0  0  0  0  0  0  0  0  0  0  0
   -1.6236    0.1044    1.5749 H   0  0  0  0  0  0  0  0  0  0  0  0
   -0.2093    2.0070    1.5878 H   0  0  0  0  0  0  0  0  0  0  0  0
   -0.5975    2.3406   -0.1421 H   0  0  0  0  0  0  0  0  0  0  0  0
    2.5537    1.8075    0.1454 H   0  0  0  0  0  0  0  0  0  0  0  0
    2.7523    0.1192   -0.5563 H   0  0  0  0  0  0  0  0  0  0  0  0
    1.0193   -2.2831    0.2945 H   0  0  0  0  0  0  0  0  0  0  0  0
   -0.8392   -2.5070    0.6814 H   0  0  0  0  0  0  0  0  0  0  0  0
   -1.3986   -1.5788   -1.5575 H   0  0  0  0  0  0  0  0  0  0  0  0
    0.4002   -1.4576   -1.9710 H   0  0  0  0  0  0  0  0  0  0  0  0
  1  2  1  0
  2  3  1  0
  3  4  1  0
  4  5  1  0
  5  6  1  0
  4  7  1  0
  7  8  1  0
  8  9  1  0
  7  2  1  0
  6  4  1  0
  9  7  1  0
  1 10  1  0
  2 11  1  0
  3 12  1  0
  3 13  1  0
  5 14  1  0
  5 15  1  0
  8 16  1  0
  8 17  1  0
  9 18  1  0
  9 19  1  0
M  END
