
     RDKit          3D

 17 19  0  0  0  0  0  0  0  0999 V2000
    1.9224   -0.8940   -0.7034 O   0  0  0  0  0  0  0  0  0  0  0  0
    1.1639    0.1310   -0.1872 C   0  0  0  0  0  0  0  0  0  0  0  0
    0.1283   -0.2519    0.8368 C   0  0  0  0  0  0  0  0  0  0  0  0
   -0.6012   -1.5188    0.4028 C   0  0  0  0  0  0  0  0  0  0  0  0
   -1.5403   -1.1629   -0.5272 O   0  0  0  0  0  0  0  0  0  0  0  0
   -1.3421    0.1436   -0.9129 C   0  0  0  0  0  0  0  0  0  0  0  0
    0.0489    0.6465   -1.0609 C   0  0  0  0  0  0  0  0  0  0  0  0
   -0.7554    0.8002    0.2331 C   0  0  0  0  0  0  0  0  0  0  0  0
   -1.0142    1.9894    0.7715 O   0  0  0  0  0  0  0  0  0  0  0  0
    2.8508   -0.8632   -0.3160 H   0  0  0  0  0  0  0  0  0  0  0  0
    1.7900    0.9686    0.2365 H   0  0  0  0  0  0  0  0  0  0  0  0
    0.3880   -0.1725    1.8831 H   0  0  0  0  0  0  0  0  0  0  0  0
    0.1425   -2.1887   -0.1164 H   0  0  0  0  0  0  0  0  0  0  0  0
   -1.0331   -2.0607    1.2725 H   0  0  0  0  0  0  0  0  0  0  0  0
   -2.1185    0.6342   -1.4809 H   0  0  0  0  0  0  0  0  0  0  0  0
    0.2311    1.5202   -1.6863 H   0  0  0  0  0  0  0  0  0  0  0  0
   -0.2612    2.2789    1.3548 H   0  0  0  0  0  0  0  0  0  0  0  0
  1  2  1  0
  2  3  1  0
  3  4  1  0
  4  5  1  0
  5  6  1  0
  6  7  1  0
  7  8  1  0
  8  9  1  0
  7  2  1  0
  8  3  1  0
  8  6  1  0
  1 10  1  0
  2 11  1  0
  3 12  1  0
  4 13  1  0
  4 14  1  0
  6 15  1  0
  7 16  1  0
  9 17  1  0
M  END
