
     RDKit          3D

 19 21  0  0  0  0  0  0  0  0999 V2000
    2.4273    1.5839    0.3002 O   0  0  0  0  0  0  0  0  0  0  0  0
    1.2582    0.8832    0.4527 C   0  0  0  0  0  0  0  0  0  0  0  0
    1.1980   -0.4061   -0.3463 C   0  0  0  0  0  0  0  0  0  0  0  0
    0.3659   -1.4773    0.3130 C   0  0  0  0  0  0  0  0  0  0  0  0
   -1.0409   -1.1710   -0.1105 C   0  0  0  0  0  0  0  0  0  0  0  0
   -1.8795   -0.7461    0.9323 O   0  0  0  0  0  0  0  0  0  0  0  0
   -1.8514    0.6246    0.6118 C   0  0  0  0  0  0  0  0  0  0  0  0
   -1.0446    0.2599   -0.5941 C   0  0  0  0  0  0  0  0  0  0  0  0
    0.3449    0.7363   -0.6797 C   0  0  0  0  0  0  0  0  0  0  0  0
    2.8959    1.3343   -0.5519 H   0  0  0  0  0  0  0  0  0  0  0  0
    0.8642    0.8840    1.4978 H   0  0  0  0  0  0  0  0  0  0  0  0
    2.0336   -0.6787   -1.0088 H   0  0  0  0  0  0  0  0  0  0  0  0
    0.4876   -1.3650    1.4242 H   0  0  0  0  0  0  0  0  0  0  0  0
    0.7172   -2.4819   -0.0190 H   0  0  0  0  0  0  0  0  0  0  0  0
   -1.4932   -1.8968   -0.8030 H   0  0  0  0  0  0  0  0  0  0  0  0
   -1.3924    1.2745    1.3573 H   0  0  0  0  0  0  0  0  0  0  0  0
   -2.8847    0.9786    0.3498 H   0  0  0  0  0  0  0  0  0  0  0  0
   -1.6011    0.3291   -1.5358 H   0  0  0  0  0  0  0  0  0  0  0  0
    0.5949    1.3345   -1.5901 H   0  0  0  0  0  0  0  0  0  0  0  0
  1  2  1  0
  2  3  1  0
  3  4  1  0
  4  5  1  0
  5  6  1  0
  6  7  1  0
  7  8  1  0
  8  9  1  0
  9  2  1  0
  9  3  1  0
  8  5  1  0
  1 10  1  0
  2 11  1  0
  3 12  1  0
  4 13  1  0
  4 14  1  0
  5 15  1  0
  7 16  1  0
  7 17  1  0
  8 18  1  0
  9 19  1  0
M  END
