
     RDKit          3D

 19 20  0  0  0  0  0  0  0  0999 V2000
    2.5088    0.7893    0.8644 O   0  0  0  0  0  0  0  0  0  0  0  0
    1.6969    0.5951   -0.2325 C   0  0  0  0  0  0  0  0  0  0  0  0
    1.3821   -0.9043   -0.3546 C   0  0  0  0  0  0  0  0  0  0  0  0
    0.0046   -0.4393   -0.7979 C   0  0  0  0  0  0  0  0  0  0  0  0
   -1.1481   -1.2308   -0.2941 C   0  0  0  0  0  0  0  0  0  0  0  0
   -1.9495   -0.5233    0.5582 O   0  0  0  0  0  0  0  0  0  0  0  0
   -2.1315    0.8083    0.1149 C   0  0  0  0  0  0  0  0  0  0  0  0
   -0.8087    1.4588    0.4499 C   0  0  0  0  0  0  0  0  0  0  0  0
    0.2507    0.8054   -0.0199 C   0  0  0  0  0  0  0  0  0  0  0  0
    3.2473    0.1066    0.7943 H   0  0  0  0  0  0  0  0  0  0  0  0
    2.1031    0.9408   -1.1910 H   0  0  0  0  0  0  0  0  0  0  0  0
    1.3615   -1.4403    0.5980 H   0  0  0  0  0  0  0  0  0  0  0  0
    1.9092   -1.3999   -1.1948 H   0  0  0  0  0  0  0  0  0  0  0  0
   -0.0548   -0.2267   -1.9001 H   0  0  0  0  0  0  0  0  0  0  0  0
   -1.7605   -1.6430   -1.1491 H   0  0  0  0  0  0  0  0  0  0  0  0
   -0.7352   -2.1174    0.2519 H   0  0  0  0  0  0  0  0  0  0  0  0
   -2.1912    0.7552   -0.9887 H   0  0  0  0  0  0  0  0  0  0  0  0
   -2.9703    1.2975    0.6011 H   0  0  0  0  0  0  0  0  0  0  0  0
   -0.7142    2.3680    1.0159 H   0  0  0  0  0  0  0  0  0  0  0  0
  1  2  1  0
  2  3  1  0
  3  4  1  0
  4  5  1  0
  5  6  1  0
  6  7  1  0
  7  8  1  0
  8  9  2  0
  9  2  1  0
  9  4  1  0
  1 10  1  0
  2 11  1  0
  3 12  1  0
  3 13  1  0
  4 14  1  0
  5 15  1  0
  5 16  1  0
  7 17  1  0
  7 18  1  0
  8 19  1  0
M  END
