
     RDKit          3D

 19 20  0  0  0  0  0  0  0  0999 V2000
    2.0547   -0.9016   -0.2818 O   0  0  0  0  0  0  0  0  0  0  0  0
    0.7254   -0.7886   -0.5803 C   0  0  0  0  0  0  0  0  0  0  0  0
   -0.1697   -1.1800    0.6095 C   0  0  0  0  0  0  0  0  0  0  0  0
   -1.4973   -0.5477    0.3251 C   0  0  0  0  0  0  0  0  0  0  0  0
   -1.1600    0.5398   -0.7065 C   0  0  0  0  0  0  0  0  0  0  0  0
    0.3085    0.6938   -0.4825 C   0  0  0  0  0  0  0  0  0  0  0  0
    0.9889    1.4852   -1.3254 O   0  0  0  0  0  0  0  0  0  0  0  0
    0.6424    0.8670    0.9959 C   0  0  0  0  0  0  0  0  0  0  0  0
    0.4353   -0.3730    1.5981 O   0  0  0  0  0  0  0  0  0  0  0  0
    2.1608   -1.6989    0.3214 H   0  0  0  0  0  0  0  0  0  0  0  0
    0.3975   -1.2393   -1.5090 H   0  0  0  0  0  0  0  0  0  0  0  0
   -0.1619   -2.2213    0.8308 H   0  0  0  0  0  0  0  0  0  0  0  0
   -1.9093   -0.0099    1.2260 H   0  0  0  0  0  0  0  0  0  0  0  0
   -2.2714   -1.2250   -0.0224 H   0  0  0  0  0  0  0  0  0  0  0  0
   -1.7527    1.4360   -0.5786 H   0  0  0  0  0  0  0  0  0  0  0  0
   -1.3123    0.0344   -1.7028 H   0  0  0  0  0  0  0  0  0  0  0  0
    0.6995    2.4108   -1.2237 H   0  0  0  0  0  0  0  0  0  0  0  0
    0.0708    1.6737    1.4668 H   0  0  0  0  0  0  0  0  0  0  0  0
    1.7508    1.0446    1.0392 H   0  0  0  0  0  0  0  0  0  0  0  0
  1  2  1  0
  2  3  1  0
  3  4  1  0
  4  5  1  0
  5  6  1  0
  6  7  1  0
  6  8  1  0
  8  9  1  0
  6  2  1  0
  9  3  1  0
  1 10  1  0
  2 11  1  0
  3 12  1  0
  4 13  1  0
  4 14  1  0
  5 15  1  0
  5 16  1  0
  7 17  1  0
  8 18  1  0
  8 19  1  0
M  END
