
     RDKit          3D

 15 17  0  0  0  0  0  0  0  0999 V2000
   -1.0522    0.9824   -1.6860 O   0  0  0  0  0  0  0  0  0  0  0  0
   -1.1206    0.1710   -0.5683 C   0  0  0  0  0  0  0  0  0  0  0  0
   -0.0299   -0.8086   -0.4061 C   0  0  0  0  0  0  0  0  0  0  0  0
   -0.3468   -2.1162   -0.1643 O   0  0  0  0  0  0  0  0  0  0  0  0
    1.4015   -0.4133   -0.6094 C   0  0  0  0  0  0  0  0  0  0  0  0
    1.6079    0.8691   -1.0411 O   0  0  0  0  0  0  0  0  0  0  0  0
    1.1833    0.7998    0.2611 C   0  0  0  0  0  0  0  0  0  0  0  0
   -0.1986    0.2783    0.5632 C   0  0  0  0  0  0  0  0  0  0  0  0
   -0.5386   -0.0446    1.8419 O   0  0  0  0  0  0  0  0  0  0  0  0
   -0.9557    1.9447   -1.4784 H   0  0  0  0  0  0  0  0  0  0  0  0
   -2.1424   -0.2103   -0.3630 H   0  0  0  0  0  0  0  0  0  0  0  0
   -0.9311   -2.1728    0.6271 H   0  0  0  0  0  0  0  0  0  0  0  0
    2.1974   -1.0881   -0.3222 H   0  0  0  0  0  0  0  0  0  0  0  0
    1.8799    1.0615    1.0551 H   0  0  0  0  0  0  0  0  0  0  0  0
   -0.9543    0.7471    2.2903 H   0  0  0  0  0  0  0  0  0  0  0  0
  1  2  1  0
  2  3  1  0
  3  4  1  0
  3  5  1  0
  5  6  1  0
  6  7  1  0
  7  8  1  0
  8  9  1  0
  8  2  1  0
  8  3  1  0
  7  5  1  0
  1 10  1  0
  2 11  1  0
  4 12  1  0
  5 13  1  0
  7 14  1  0
  9 15  1  0
M  END
