
     RDKit          3D

 19 21  0  0  0  0  0  0  0  0999 V2000
    0.7499   -1.1930    1.9332 O   0  0  0  0  0  0  0  0  0  0  0  0
    0.3811   -0.0242    1.2741 C   0  0  0  0  0  0  0  0  0  0  0  0
    1.3290    0.3329    0.1903 C   0  0  0  0  0  0  0  0  0  0  0  0
    1.4451   -0.4564   -1.0598 C   0  0  0  0  0  0  0  0  0  0  0  0
    0.5328    0.6778   -0.9800 C   0  0  0  0  0  0  0  0  0  0  0  0
   -0.9122    0.5456   -0.5985 C   0  0  0  0  0  0  0  0  0  0  0  0
   -1.7710    1.5997   -0.8629 O   0  0  0  0  0  0  0  0  0  0  0  0
   -1.4366   -0.8276   -0.4068 C   0  0  0  0  0  0  0  0  0  0  0  0
   -1.0019   -0.0394    0.7533 C   0  0  0  0  0  0  0  0  0  0  0  0
    0.6709   -1.9987    1.3998 H   0  0  0  0  0  0  0  0  0  0  0  0
    0.4509    0.7921    2.0537 H   0  0  0  0  0  0  0  0  0  0  0  0
    2.2405    0.8749    0.5012 H   0  0  0  0  0  0  0  0  0  0  0  0
    1.1304   -1.5133   -0.9762 H   0  0  0  0  0  0  0  0  0  0  0  0
    2.3567   -0.3289   -1.6706 H   0  0  0  0  0  0  0  0  0  0  0  0
    0.7784    1.5983   -1.5699 H   0  0  0  0  0  0  0  0  0  0  0  0
   -1.7212    2.2795   -0.1243 H   0  0  0  0  0  0  0  0  0  0  0  0
   -0.8883   -1.7206   -0.7680 H   0  0  0  0  0  0  0  0  0  0  0  0
   -2.5363   -0.9304   -0.5499 H   0  0  0  0  0  0  0  0  0  0  0  0
   -1.7982    0.3318    1.4613 H   0  0  0  0  0  0  0  0  0  0  0  0
  1  2  1  0
  2  3  1  0
  3  4  1  0
  4  5  1  0
  5  6  1  0
  6  7  1  0
  6  8  1  0
  8  9  1  0
  9  2  1  0
  5  3  1  0
  9  6  1  0
  1 10  1  0
  2 11  1  0
  3 12  1  0
  4 13  1  0
  4 14  1  0
  5 15  1  0
  7 16  1  0
  8 17  1  0
  8 18  1  0
  9 19  1  0
M  END
