
     RDKit          3D

 19 20  0  0  0  0  0  0  0  0999 V2000
   -2.5566   -0.8547   -0.4854 O   0  0  0  0  0  0  0  0  0  0  0  0
   -1.2173   -0.4748   -0.5806 C   0  0  0  0  0  0  0  0  0  0  0  0
   -0.2965   -1.2279    0.3168 C   0  0  0  0  0  0  0  0  0  0  0  0
    1.1123   -1.3498   -0.2401 C   0  0  0  0  0  0  0  0  0  0  0  0
    1.8190   -0.0456   -0.0638 C   0  0  0  0  0  0  0  0  0  0  0  0
    1.3947    1.2095   -0.0678 C   0  0  0  0  0  0  0  0  0  0  0  0
    0.0074    1.6320   -0.4172 C   0  0  0  0  0  0  0  0  0  0  0  0
   -0.9321    0.7228    0.3143 C   0  0  0  0  0  0  0  0  0  0  0  0
   -0.3141   -0.1373    1.1951 O   0  0  0  0  0  0  0  0  0  0  0  0
   -2.9708   -0.4361    0.3049 H   0  0  0  0  0  0  0  0  0  0  0  0
   -0.9301   -0.3304   -1.6186 H   0  0  0  0  0  0  0  0  0  0  0  0
   -0.7313   -2.1576    0.7010 H   0  0  0  0  0  0  0  0  0  0  0  0
    1.0811   -1.6400   -1.3225 H   0  0  0  0  0  0  0  0  0  0  0  0
    1.6162   -2.1520    0.3427 H   0  0  0  0  0  0  0  0  0  0  0  0
    2.8871   -0.1486    0.0990 H   0  0  0  0  0  0  0  0  0  0  0  0
    2.0832    2.0003    0.1971 H   0  0  0  0  0  0  0  0  0  0  0  0
   -0.0737    1.4948   -1.5319 H   0  0  0  0  0  0  0  0  0  0  0  0
   -0.1634    2.7074   -0.2142 H   0  0  0  0  0  0  0  0  0  0  0  0
   -1.8150    1.1880    0.7665 H   0  0  0  0  0  0  0  0  0  0  0  0
  1  2  1  0
  2  3  1  0
  3  4  1  0
  4  5  1  0
  5  6  2  0
  6  7  1  0
  7  8  1  0
  8  9  1  0
  8  2  1  0
  9  3  1  0
  1 10  1  0
  2 11  1  0
  3 12  1  0
  4 13  1  0
  4 14  1  0
  5 15  1  0
  6 16  1  0
  7 17  1  0
  7 18  1  0
  8 19  1  0
M  END
