
     RDKit          3D

 18 20  0  0  0  0  0  0  0  0999 V2000
    2.8099    0.8290    0.4491 O   0  0  0  0  0  0  0  0  0  0  0  0
    1.5010    1.0951    0.0181 C   0  0  0  0  0  0  0  0  0  0  0  0
    0.7862    0.1001   -0.6849 C   0  0  0  0  0  0  0  0  0  0  0  0
    0.2750   -1.2434   -0.3826 C   0  0  0  0  0  0  0  0  0  0  0  0
   -1.1543   -0.9039    0.0764 C   0  0  0  0  0  0  0  0  0  0  0  0
   -1.8941    0.1994   -0.5498 C   0  0  0  0  0  0  0  0  0  0  0  0
   -1.0611    0.5937    0.5493 C   0  0  0  0  0  0  0  0  0  0  0  0
    0.3788    0.6349    0.7441 C   0  0  0  0  0  0  0  0  0  0  0  0
    3.0009   -0.1126    0.5608 H   0  0  0  0  0  0  0  0  0  0  0  0
    1.4628    2.1779   -0.3111 H   0  0  0  0  0  0  0  0  0  0  0  0
    0.1998    0.5068   -1.5502 H   0  0  0  0  0  0  0  0  0  0  0  0
    0.7583   -1.6866    0.5309 H   0  0  0  0  0  0  0  0  0  0  0  0
    0.2871   -1.9588   -1.1960 H   0  0  0  0  0  0  0  0  0  0  0  0
   -1.5987   -1.6064    0.7755 H   0  0  0  0  0  0  0  0  0  0  0  0
   -3.0124    0.1202   -0.3534 H   0  0  0  0  0  0  0  0  0  0  0  0
   -1.7978    0.4890   -1.6197 H   0  0  0  0  0  0  0  0  0  0  0  0
   -1.6195    0.8163    1.5196 H   0  0  0  0  0  0  0  0  0  0  0  0
    0.6782   -0.0508    1.6064 H   0  0  0  0  0  0  0  0  0  0  0  0
  1  2  1  0
  2  3  1  0
  3  4  1  0
  4  5  1  0
  5  6  1  0
  6  7  1  0
  7  8  1  0
  8  2  1  0
  8  3  1  0
  7  5  1  0
  1  9  1  0
  2 10  1  0
  3 11  1  0
  4 12  1  0
  4 13  1  0
  5 14  1  0
  6 15  1  0
  6 16  1  0
  7 17  1  0
  8 18  1  0
M  END
