
     RDKit          3D

 17 19  0  0  0  0  0  0  0  0999 V2000
   -2.1199   -0.6576    0.7009 O   0  0  0  0  0  0  0  0  0  0  0  0
   -1.2554   -0.5257   -0.3890 C   0  0  0  0  0  0  0  0  0  0  0  0
   -0.0660   -1.4899   -0.2749 C   0  0  0  0  0  0  0  0  0  0  0  0
    0.8596   -0.3395   -0.2720 C   0  0  0  0  0  0  0  0  0  0  0  0
    2.2099   -0.2487   -0.1474 C   0  0  0  0  0  0  0  0  0  0  0  0
    1.7293   -0.3134   -1.4660 O   0  0  0  0  0  0  0  0  0  0  0  0
   -0.2538    0.5972   -0.2540 C   0  0  0  0  0  0  0  0  0  0  0  0
   -0.5045    1.7897    0.3375 C   0  0  0  0  0  0  0  0  0  0  0  0
   -0.2854    1.6803   -1.0833 O   0  0  0  0  0  0  0  0  0  0  0  0
   -2.7139    0.1077    0.7987 H   0  0  0  0  0  0  0  0  0  0  0  0
   -1.7350   -0.5141   -1.3717 H   0  0  0  0  0  0  0  0  0  0  0  0
   -0.0626   -2.1483   -1.1508 H   0  0  0  0  0  0  0  0  0  0  0  0
   -0.1167   -2.1133    0.6477 H   0  0  0  0  0  0  0  0  0  0  0  0
    2.8347   -1.1182    0.2172 H   0  0  0  0  0  0  0  0  0  0  0  0
    2.7266    0.7116    0.0688 H   0  0  0  0  0  0  0  0  0  0  0  0
    0.2753    2.4027    0.8765 H   0  0  0  0  0  0  0  0  0  0  0  0
   -1.5222    2.1795    0.5440 H   0  0  0  0  0  0  0  0  0  0  0  0
  1  2  1  0
  2  3  1  0
  3  4  1  0
  4  5  1  0
  5  6  1  0
  4  7  1  0
  7  8  1  0
  8  9  1  0
  7  2  1  0
  6  4  1  0
  9  7  1  0
  1 10  1  0
  2 11  1  0
  3 12  1  0
  3 13  1  0
  5 14  1  0
  5 15  1  0
  8 16  1  0
  8 17  1  0
M  END
