
     RDKit          3D

 21 22  0  0  0  0  0  0  0  0999 V2000
    1.0032    1.8012    0.6533 O   0  0  0  0  0  0  0  0  0  0  0  0
    0.3699    1.1152   -0.3995 C   0  0  0  0  0  0  0  0  0  0  0  0
    1.3285    0.0649   -0.8927 C   0  0  0  0  0  0  0  0  0  0  0  0
    1.1766   -1.1665   -0.0714 C   0  0  0  0  0  0  0  0  0  0  0  0
   -0.2234   -1.4163    0.3910 C   0  0  0  0  0  0  0  0  0  0  0  0
   -0.5708   -0.3062    1.3952 C   0  0  0  0  0  0  0  0  0  0  0  0
   -0.8968    0.5352    0.1581 C   0  0  0  0  0  0  0  0  0  0  0  0
   -1.9125    1.4354    0.3195 O   0  0  0  0  0  0  0  0  0  0  0  0
   -1.2686   -0.7822   -0.5037 C   0  0  0  0  0  0  0  0  0  0  0  0
    1.2816    2.6981    0.3562 H   0  0  0  0  0  0  0  0  0  0  0  0
    0.1271    1.8539   -1.1878 H   0  0  0  0  0  0  0  0  0  0  0  0
    2.3620    0.5034   -0.7827 H   0  0  0  0  0  0  0  0  0  0  0  0
    1.2047   -0.0875   -1.9828 H   0  0  0  0  0  0  0  0  0  0  0  0
    1.5408   -2.0353   -0.6574 H   0  0  0  0  0  0  0  0  0  0  0  0
    1.8141   -1.0545    0.8446 H   0  0  0  0  0  0  0  0  0  0  0  0
   -0.4283   -2.4246    0.7421 H   0  0  0  0  0  0  0  0  0  0  0  0
   -1.5033   -0.5430    1.9482 H   0  0  0  0  0  0  0  0  0  0  0  0
    0.2613    0.0474    1.9964 H   0  0  0  0  0  0  0  0  0  0  0  0
   -2.2839    1.6942   -0.5484 H   0  0  0  0  0  0  0  0  0  0  0  0
   -2.2778   -1.0839   -0.2047 H   0  0  0  0  0  0  0  0  0  0  0  0
   -1.1042   -0.8488   -1.5736 H   0  0  0  0  0  0  0  0  0  0  0  0
  1  2  1  0
  2  3  1  0
  3  4  1  0
  4  5  1  0
  5  6  1  0
  6  7  1  0
  7  8  1  0
  7  9  1  0
  7  2  1  0
  9  5  1  0
  1 10  1  0
  2 11  1  0
  3 12  1  0
  3 13  1  0
  4 14  1  0
  4 15  1  0
  5 16  1  0
  6 17  1  0
  6 18  1  0
  8 19  1  0
  9 20  1  0
  9 21  1  0
M  END
