
     RDKit          3D

 19 21  0  0  0  0  0  0  0  0999 V2000
    2.8800   -1.1783   -0.6176 O   0  0  0  0  0  0  0  0  0  0  0  0
    1.6359   -1.0032    0.0330 C   0  0  0  0  0  0  0  0  0  0  0  0
    1.3048    0.3003    0.4385 C   0  0  0  0  0  0  0  0  0  0  0  0
    1.1355    1.4884   -0.1875 O   0  0  0  0  0  0  0  0  0  0  0  0
   -0.2803    1.5872   -0.2771 C   0  0  0  0  0  0  0  0  0  0  0  0
   -0.7494    0.1350   -0.3028 C   0  0  0  0  0  0  0  0  0  0  0  0
   -2.0897   -0.2926   -0.5129 C   0  0  0  0  0  0  0  0  0  0  0  0
   -1.5039   -0.2910    0.9120 C   0  0  0  0  0  0  0  0  0  0  0  0
    0.5117   -0.5127   -0.6691 C   0  0  0  0  0  0  0  0  0  0  0  0
    3.5510   -1.1099    0.1346 H   0  0  0  0  0  0  0  0  0  0  0  0
    1.4693   -1.8790    0.7181 H   0  0  0  0  0  0  0  0  0  0  0  0
    0.7965    0.3568    1.4524 H   0  0  0  0  0  0  0  0  0  0  0  0
   -0.7050    2.1575    0.5437 H   0  0  0  0  0  0  0  0  0  0  0  0
   -0.4546    2.0714   -1.2736 H   0  0  0  0  0  0  0  0  0  0  0  0
   -2.9128    0.4290   -0.6669 H   0  0  0  0  0  0  0  0  0  0  0  0
   -2.2781   -1.2911   -0.9269 H   0  0  0  0  0  0  0  0  0  0  0  0
   -1.8762    0.4941    1.6050 H   0  0  0  0  0  0  0  0  0  0  0  0
   -1.1920   -1.2549    1.3357 H   0  0  0  0  0  0  0  0  0  0  0  0
    0.7572   -0.2072   -1.7388 H   0  0  0  0  0  0  0  0  0  0  0  0
  1  2  1  0
  2  3  1  0
  3  4  1  0
  4  5  1  0
  5  6  1  0
  6  7  1  0
  7  8  1  0
  6  9  1  0
  9  2  1  0
  9  3  1  0
  8  6  1  0
  1 10  1  0
  2 11  1  0
  3 12  1  0
  5 13  1  0
  5 14  1  0
  7 15  1  0
  7 16  1  0
  8 17  1  0
  8 18  1  0
  9 19  1  0
M  END
