
     RDKit          3D

 21 22  0  0  0  0  0  0  0  0999 V2000
    2.3271   -0.7442   -0.4841 O   0  0  0  0  0  0  0  0  0  0  0  0
    1.4315   -0.0752    0.3396 C   0  0  0  0  0  0  0  0  0  0  0  0
    1.0352    1.1956   -0.3232 C   0  0  0  0  0  0  0  0  0  0  0  0
   -0.1959    1.6831    0.0317 O   0  0  0  0  0  0  0  0  0  0  0  0
   -1.2347    1.0697   -0.6784 C   0  0  0  0  0  0  0  0  0  0  0  0
   -1.5605   -0.2158    0.0446 C   0  0  0  0  0  0  0  0  0  0  0  0
   -0.8364   -0.3075    1.3822 C   0  0  0  0  0  0  0  0  0  0  0  0
    0.2908   -0.9880    0.6731 C   0  0  0  0  0  0  0  0  0  0  0  0
   -0.6199   -1.2738   -0.4713 C   0  0  0  0  0  0  0  0  0  0  0  0
    2.7114   -0.1198   -1.1750 H   0  0  0  0  0  0  0  0  0  0  0  0
    1.9655    0.1396    1.3022 H   0  0  0  0  0  0  0  0  0  0  0  0
    1.7937    1.9760   -0.0284 H   0  0  0  0  0  0  0  0  0  0  0  0
    1.1438    1.1057   -1.4396 H   0  0  0  0  0  0  0  0  0  0  0  0
   -0.9470    0.8650   -1.7398 H   0  0  0  0  0  0  0  0  0  0  0  0
   -2.1374    1.7108   -0.7099 H   0  0  0  0  0  0  0  0  0  0  0  0
   -2.6149   -0.4732    0.1082 H   0  0  0  0  0  0  0  0  0  0  0  0
   -1.3359   -0.9698    2.1060 H   0  0  0  0  0  0  0  0  0  0  0  0
   -0.5834    0.6917    1.8257 H   0  0  0  0  0  0  0  0  0  0  0  0
    0.6665   -1.9106    1.1501 H   0  0  0  0  0  0  0  0  0  0  0  0
   -1.0732   -2.2802   -0.4340 H   0  0  0  0  0  0  0  0  0  0  0  0
   -0.2265   -1.0792   -1.4799 H   0  0  0  0  0  0  0  0  0  0  0  0
  1  2  1  0
  2  3  1  0
  3  4  1  0
  4  5  1  0
  5  6  1  0
  6  7  1  0
  7  8  1  0
  8  9  1  0
  8  2  1  0
  9  6  1  0
  1 10  1  0
  2 11  1  0
  3 12  1  0
  3 13  1  0
  5 14  1  0
  5 15  1  0
  6 16  1  0
  7 17  1  0
  7 18  1  0
  8 19  1  0
  9 20  1  0
  9 21  1  0
M  END
