
     RDKit          3D

 21 22  0  0  0  0  0  0  0  0999 V2000
    1.9253    1.5142   -0.5893 O   0  0  0  0  0  0  0  0  0  0  0  0
    1.9913    0.1940   -0.1840 C   0  0  0  0  0  0  0  0  0  0  0  0
    0.9108   -0.6624   -0.8561 C   0  0  0  0  0  0  0  0  0  0  0  0
    0.0023   -0.2136    0.2901 C   0  0  0  0  0  0  0  0  0  0  0  0
   -0.9172   -1.2642    0.6585 C   0  0  0  0  0  0  0  0  0  0  0  0
   -2.1340   -0.9961    0.2340 C   0  0  0  0  0  0  0  0  0  0  0  0
   -2.1134    0.3037   -0.4761 C   0  0  0  0  0  0  0  0  0  0  0  0
   -0.8243    0.9913   -0.0184 C   0  0  0  0  0  0  0  0  0  0  0  0
    1.2297   -0.0027    1.1124 C   0  0  0  0  0  0  0  0  0  0  0  0
    2.8339    1.9060   -0.5066 H   0  0  0  0  0  0  0  0  0  0  0  0
    2.9835   -0.2804   -0.2264 H   0  0  0  0  0  0  0  0  0  0  0  0
    0.5251   -0.2335   -1.7917 H   0  0  0  0  0  0  0  0  0  0  0  0
    1.1438   -1.7405   -0.8582 H   0  0  0  0  0  0  0  0  0  0  0  0
   -0.7245   -2.2041    1.2194 H   0  0  0  0  0  0  0  0  0  0  0  0
   -3.0471   -1.6253    0.3728 H   0  0  0  0  0  0  0  0  0  0  0  0
   -2.9906    0.9421   -0.2485 H   0  0  0  0  0  0  0  0  0  0  0  0
   -2.0808    0.1896   -1.5861 H   0  0  0  0  0  0  0  0  0  0  0  0
   -0.4032    1.5879   -0.8563 H   0  0  0  0  0  0  0  0  0  0  0  0
   -1.0253    1.5608    0.8878 H   0  0  0  0  0  0  0  0  0  0  0  0
    1.1990    0.9314    1.7304 H   0  0  0  0  0  0  0  0  0  0  0  0
    1.5159   -0.8982    1.6924 H   0  0  0  0  0  0  0  0  0  0  0  0
  1  2  1  0
  2  3  1  0
  3  4  1  0
  4  5  1  0
  5  6  2  0
  6  7  1  0
  7  8  1  0
  4  9  1  0
  9  2  1  0
  8  4  1  0
  1 10  1  0
  2 11  1  0
  3 12  1  0
  3 13  1  0
  5 14  1  0
  6 15  1  0
  7 16  1  0
  7 17  1  0
  8 18  1  0
  8 19  1  0
  9 20  1  0
  9 21  1  0
M  END
