
     RDKit          3D

 21 22  0  0  0  0  0  0  0  0999 V2000
    2.1346    1.7671    0.1083 O   0  0  0  0  0  0  0  0  0  0  0  0
    1.0693    0.9018    0.3159 C   0  0  0  0  0  0  0  0  0  0  0  0
   -0.1957    1.7166    0.1908 C   0  0  0  0  0  0  0  0  0  0  0  0
   -1.4400    1.3147    0.2894 C   0  0  0  0  0  0  0  0  0  0  0  0
   -1.9350   -0.0425    0.5490 C   0  0  0  0  0  0  0  0  0  0  0  0
   -0.9210   -1.1194    0.3740 C   0  0  0  0  0  0  0  0  0  0  0  0
   -0.0767   -1.0114   -0.8384 C   0  0  0  0  0  0  0  0  0  0  0  0
    1.3580   -1.5123   -0.6282 C   0  0  0  0  0  0  0  0  0  0  0  0
    1.0492   -0.0941   -0.8038 C   0  0  0  0  0  0  0  0  0  0  0  0
    2.9341    1.3970    0.5154 H   0  0  0  0  0  0  0  0  0  0  0  0
    1.1176    0.3600    1.2637 H   0  0  0  0  0  0  0  0  0  0  0  0
   -0.0936    2.7747   -0.0060 H   0  0  0  0  0  0  0  0  0  0  0  0
   -2.2501    2.0504    0.1699 H   0  0  0  0  0  0  0  0  0  0  0  0
   -2.8582   -0.2992   -0.0357 H   0  0  0  0  0  0  0  0  0  0  0  0
   -2.2717   -0.0734    1.6210 H   0  0  0  0  0  0  0  0  0  0  0  0
   -0.3444   -1.2234    1.3264 H   0  0  0  0  0  0  0  0  0  0  0  0
   -1.4953   -2.0904    0.2915 H   0  0  0  0  0  0  0  0  0  0  0  0
   -0.5726   -1.2113   -1.7938 H   0  0  0  0  0  0  0  0  0  0  0  0
    1.6632   -1.8606    0.3573 H   0  0  0  0  0  0  0  0  0  0  0  0
    1.7523   -2.0944   -1.4770 H   0  0  0  0  0  0  0  0  0  0  0  0
    1.3761    0.3498   -1.7897 H   0  0  0  0  0  0  0  0  0  0  0  0
  1  2  1  0
  2  3  1  0
  3  4  2  0
  4  5  1  0
  5  6  1  0
  6  7  1  0
  7  8  1  0
  8  9  1  0
  9  2  1  0
  9  7  1  0
  1 10  1  0
  2 11  1  0
  3 12  1  0
  4 13  1  0
  5 14  1  0
  5 15  1  0
  6 16  1  0
  6 17  1  0
  7 18  1  0
  8 19  1  0
  8 20  1  0
  9 21  1  0
M  END
