
     RDKit          3D

 21 23  0  0  0  0  0  0  0  0999 V2000
    0.6205    2.0902   -1.0257 O   0  0  0  0  0  0  0  0  0  0  0  0
    0.2606    1.2778    0.0536 C   0  0  0  0  0  0  0  0  0  0  0  0
   -1.1096    0.6973   -0.0912 C   0  0  0  0  0  0  0  0  0  0  0  0
   -1.1604   -0.5679   -0.8932 C   0  0  0  0  0  0  0  0  0  0  0  0
   -0.6239   -1.2799    0.3196 C   0  0  0  0  0  0  0  0  0  0  0  0
   -1.3233   -0.1897    1.1457 C   0  0  0  0  0  0  0  0  0  0  0  0
    0.8576   -1.1295    0.4586 C   0  0  0  0  0  0  0  0  0  0  0  0
    1.7499   -0.7437   -0.6219 C   0  0  0  0  0  0  0  0  0  0  0  0
    1.3143    0.2686    0.3865 C   0  0  0  0  0  0  0  0  0  0  0  0
    0.3467    3.0435   -0.8629 H   0  0  0  0  0  0  0  0  0  0  0  0
    0.1972    1.9786    0.9396 H   0  0  0  0  0  0  0  0  0  0  0  0
   -1.8725    1.4455   -0.2626 H   0  0  0  0  0  0  0  0  0  0  0  0
   -0.5861   -0.6214   -1.8076 H   0  0  0  0  0  0  0  0  0  0  0  0
   -2.2214   -0.8514   -1.0736 H   0  0  0  0  0  0  0  0  0  0  0  0
   -0.9930   -2.2884    0.5078 H   0  0  0  0  0  0  0  0  0  0  0  0
   -2.3901   -0.4355    1.3206 H   0  0  0  0  0  0  0  0  0  0  0  0
   -0.7485    0.1520    2.0184 H   0  0  0  0  0  0  0  0  0  0  0  0
    1.2846   -1.7557    1.2911 H   0  0  0  0  0  0  0  0  0  0  0  0
    1.4487   -0.5895   -1.6711 H   0  0  0  0  0  0  0  0  0  0  0  0
    2.8150   -1.1183   -0.5620 H   0  0  0  0  0  0  0  0  0  0  0  0
    2.1336    0.6175    1.0826 H   0  0  0  0  0  0  0  0  0  0  0  0
  1  2  1  0
  2  3  1  0
  3  4  1  0
  4  5  1  0
  5  6  1  0
  5  7  1  0
  7  8  1  0
  8  9  1  0
  9  2  1  0
  6  3  1  0
  9  7  1  0
  1 10  1  0
  2 11  1  0
  3 12  1  0
  4 13  1  0
  4 14  1  0
  5 15  1  0
  6 16  1  0
  6 17  1  0
  7 18  1  0
  8 19  1  0
  8 20  1  0
  9 21  1  0
M  END
