
     RDKit          3D

 21 22  0  0  0  0  0  0  0  0999 V2000
   -0.3420   -2.5628    0.6307 O   0  0  0  0  0  0  0  0  0  0  0  0
   -0.1738   -1.3061    0.0450 C   0  0  0  0  0  0  0  0  0  0  0  0
   -1.4073   -0.5350    0.3684 C   0  0  0  0  0  0  0  0  0  0  0  0
   -1.7031    0.5498   -0.6466 C   0  0  0  0  0  0  0  0  0  0  0  0
   -0.8050    1.6757   -0.3564 C   0  0  0  0  0  0  0  0  0  0  0  0
    0.4299    1.6840    0.1097 C   0  0  0  0  0  0  0  0  0  0  0  0
    1.3652    0.6612    0.5076 C   0  0  0  0  0  0  0  0  0  0  0  0
    1.9928   -0.0814   -0.7003 C   0  0  0  0  0  0  0  0  0  0  0  0
    1.1166   -0.7337    0.3710 C   0  0  0  0  0  0  0  0  0  0  0  0
   -0.3749   -2.4065    1.6069 H   0  0  0  0  0  0  0  0  0  0  0  0
   -0.2121   -1.5082   -1.0681 H   0  0  0  0  0  0  0  0  0  0  0  0
   -1.3387   -0.0487    1.3515 H   0  0  0  0  0  0  0  0  0  0  0  0
   -2.2596   -1.2202    0.3830 H   0  0  0  0  0  0  0  0  0  0  0  0
   -1.6010    0.1608   -1.6799 H   0  0  0  0  0  0  0  0  0  0  0  0
   -2.7875    0.8018   -0.5259 H   0  0  0  0  0  0  0  0  0  0  0  0
   -1.2150    2.6524   -0.5537 H   0  0  0  0  0  0  0  0  0  0  0  0
    0.8067    2.7070    0.2053 H   0  0  0  0  0  0  0  0  0  0  0  0
    2.0983    0.9915    1.3077 H   0  0  0  0  0  0  0  0  0  0  0  0
    3.0758   -0.1462   -0.6658 H   0  0  0  0  0  0  0  0  0  0  0  0
    1.5696    0.0824   -1.6938 H   0  0  0  0  0  0  0  0  0  0  0  0
    1.7651   -1.4177    1.0038 H   0  0  0  0  0  0  0  0  0  0  0  0
  1  2  1  0
  2  3  1  0
  3  4  1  0
  4  5  1  0
  5  6  2  0
  6  7  1  0
  7  8  1  0
  8  9  1  0
  9  2  1  0
  9  7  1  0
  1 10  1  0
  2 11  1  0
  3 12  1  0
  3 13  1  0
  4 14  1  0
  4 15  1  0
  5 16  1  0
  6 17  1  0
  7 18  1  0
  8 19  1  0
  8 20  1  0
  9 21  1  0
M  END
