
     RDKit          3D

 19 21  0  0  0  0  0  0  0  0999 V2000
    2.9707    0.0415   -0.9479 O   0  0  0  0  0  0  0  0  0  0  0  0
    1.9229    0.4861   -0.1353 C   0  0  0  0  0  0  0  0  0  0  0  0
    1.7326   -0.3260    1.1086 C   0  0  0  0  0  0  0  0  0  0  0  0
    0.7026   -0.3256   -0.0484 C   0  0  0  0  0  0  0  0  0  0  0  0
   -0.6233    0.1924    0.3436 C   0  0  0  0  0  0  0  0  0  0  0  0
   -1.6660   -0.9365    0.3255 C   0  0  0  0  0  0  0  0  0  0  0  0
   -2.4186   -0.0775   -0.7010 C   0  0  0  0  0  0  0  0  0  0  0  0
   -2.7769    1.1574   -0.2044 O   0  0  0  0  0  0  0  0  0  0  0  0
   -1.4483    0.8498   -0.7286 C   0  0  0  0  0  0  0  0  0  0  0  0
    3.5766    0.7522   -1.2284 H   0  0  0  0  0  0  0  0  0  0  0  0
    1.8835    1.5803   -0.0361 H   0  0  0  0  0  0  0  0  0  0  0  0
    1.4831    0.2238    2.0155 H   0  0  0  0  0  0  0  0  0  0  0  0
    2.2695   -1.2756    1.2616 H   0  0  0  0  0  0  0  0  0  0  0  0
    0.7106   -1.2636   -0.6757 H   0  0  0  0  0  0  0  0  0  0  0  0
   -0.6554    0.7479    1.2867 H   0  0  0  0  0  0  0  0  0  0  0  0
   -1.2912   -1.8822   -0.0933 H   0  0  0  0  0  0  0  0  0  0  0  0
   -2.2400   -0.9932    1.2488 H   0  0  0  0  0  0  0  0  0  0  0  0
   -3.0578   -0.5911   -1.4384 H   0  0  0  0  0  0  0  0  0  0  0  0
   -1.0748    1.6399   -1.3528 H   0  0  0  0  0  0  0  0  0  0  0  0
  1  2  1  0
  2  3  1  0
  3  4  1  0
  4  5  1  0
  5  6  1  0
  6  7  1  0
  7  8  1  0
  8  9  1  0
  4  2  1  0
  9  5  1  0
  9  7  1  0
  1 10  1  0
  2 11  1  0
  3 12  1  0
  3 13  1  0
  4 14  1  0
  5 15  1  0
  6 16  1  0
  6 17  1  0
  7 18  1  0
  9 19  1  0
M  END
