
     RDKit          3D

 23 24  0  0  0  0  0  0  0  0999 V2000
   -1.0586   -0.9086    1.4871 O   0  0  0  0  0  0  0  0  0  0  0  0
   -1.1918   -0.8165    0.0823 C   0  0  0  0  0  0  0  0  0  0  0  0
   -1.6661    0.5304   -0.3610 C   0  0  0  0  0  0  0  0  0  0  0  0
   -0.5641    1.4744   -0.7094 C   0  0  0  0  0  0  0  0  0  0  0  0
    0.4325    1.4311    0.4565 C   0  0  0  0  0  0  0  0  0  0  0  0
    1.5376    0.5211    0.0594 C   0  0  0  0  0  0  0  0  0  0  0  0
    1.8998   -0.6876    0.8428 C   0  0  0  0  0  0  0  0  0  0  0  0
    1.2548   -0.7114   -0.5820 C   0  0  0  0  0  0  0  0  0  0  0  0
   -0.0321   -1.3574   -0.6379 C   0  0  0  0  0  0  0  0  0  0  0  0
   -1.9682   -0.8691    1.8751 H   0  0  0  0  0  0  0  0  0  0  0  0
   -2.0622   -1.5161   -0.1279 H   0  0  0  0  0  0  0  0  0  0  0  0
   -2.2513    0.9839    0.4770 H   0  0  0  0  0  0  0  0  0  0  0  0
   -2.3654    0.4690   -1.2424 H   0  0  0  0  0  0  0  0  0  0  0  0
   -0.0569    1.1547   -1.6467 H   0  0  0  0  0  0  0  0  0  0  0  0
   -0.9949    2.4772   -0.8428 H   0  0  0  0  0  0  0  0  0  0  0  0
    0.7685    2.5059    0.5612 H   0  0  0  0  0  0  0  0  0  0  0  0
   -0.0573    1.1963    1.4103 H   0  0  0  0  0  0  0  0  0  0  0  0
    2.4523    1.0908   -0.2936 H   0  0  0  0  0  0  0  0  0  0  0  0
    2.9366   -1.0266    0.9149 H   0  0  0  0  0  0  0  0  0  0  0  0
    1.2666   -0.9506    1.6834 H   0  0  0  0  0  0  0  0  0  0  0  0
    1.9788   -1.0807   -1.3737 H   0  0  0  0  0  0  0  0  0  0  0  0
    0.0831   -2.4377   -0.3106 H   0  0  0  0  0  0  0  0  0  0  0  0
   -0.3416   -1.4724   -1.7223 H   0  0  0  0  0  0  0  0  0  0  0  0
  1  2  1  0
  2  3  1  0
  3  4  1  0
  4  5  1  0
  5  6  1  0
  6  7  1  0
  7  8  1  0
  8  9  1  0
  9  2  1  0
  8  6  1  0
  1 10  1  0
  2 11  1  0
  3 12  1  0
  3 13  1  0
  4 14  1  0
  4 15  1  0
  5 16  1  0
  5 17  1  0
  6 18  1  0
  7 19  1  0
  7 20  1  0
  8 21  1  0
  9 22  1  0
  9 23  1  0
M  END
