
     RDKit          3D

 21 22  0  0  0  0  0  0  0  0999 V2000
   -2.1927    1.0145    0.4162 O   0  0  0  0  0  0  0  0  0  0  0  0
   -2.1945   -0.3702    0.3278 C   0  0  0  0  0  0  0  0  0  0  0  0
   -2.0712   -0.9185   -1.0776 C   0  0  0  0  0  0  0  0  0  0  0  0
   -0.9114   -1.0574   -0.1581 C   0  0  0  0  0  0  0  0  0  0  0  0
    0.2711   -0.1771   -0.4417 C   0  0  0  0  0  0  0  0  0  0  0  0
    0.7033    0.5955    0.8067 C   0  0  0  0  0  0  0  0  0  0  0  0
    2.0906    1.0217    0.3664 C   0  0  0  0  0  0  0  0  0  0  0  0
    2.5059   -0.1195   -0.4977 C   0  0  0  0  0  0  0  0  0  0  0  0
    1.3938   -0.8692   -0.8083 O   0  0  0  0  0  0  0  0  0  0  0  0
   -3.1118    1.3504    0.2582 H   0  0  0  0  0  0  0  0  0  0  0  0
   -2.8388   -0.9295    1.0299 H   0  0  0  0  0  0  0  0  0  0  0  0
   -2.0515   -0.1869   -1.9128 H   0  0  0  0  0  0  0  0  0  0  0  0
   -2.7072   -1.8044   -1.3242 H   0  0  0  0  0  0  0  0  0  0  0  0
   -0.7291   -2.0969    0.2065 H   0  0  0  0  0  0  0  0  0  0  0  0
    0.0049    0.5704   -1.1966 H   0  0  0  0  0  0  0  0  0  0  0  0
    0.0420    1.4429    1.0046 H   0  0  0  0  0  0  0  0  0  0  0  0
    0.7996   -0.0439    1.6814 H   0  0  0  0  0  0  0  0  0  0  0  0
    1.9687    1.9314   -0.2865 H   0  0  0  0  0  0  0  0  0  0  0  0
    2.7648    1.2139    1.2200 H   0  0  0  0  0  0  0  0  0  0  0  0
    3.0264    0.2039   -1.4305 H   0  0  0  0  0  0  0  0  0  0  0  0
    3.2369   -0.7711    0.0414 H   0  0  0  0  0  0  0  0  0  0  0  0
  1  2  1  0
  2  3  1  0
  3  4  1  0
  4  5  1  0
  5  6  1  0
  6  7  1  0
  7  8  1  0
  8  9  1  0
  4  2  1  0
  9  5  1  0
  1 10  1  0
  2 11  1  0
  3 12  1  0
  3 13  1  0
  4 14  1  0
  5 15  1  0
  6 16  1  0
  6 17  1  0
  7 18  1  0
  7 19  1  0
  8 20  1  0
  8 21  1  0
M  END
