
     RDKit          3D

 21 22  0  0  0  0  0  0  0  0999 V2000
    3.3310    0.3884    0.5840 O   0  0  0  0  0  0  0  0  0  0  0  0
    2.0055    0.6571    0.2776 C   0  0  0  0  0  0  0  0  0  0  0  0
    1.5350    0.3819   -1.1531 C   0  0  0  0  0  0  0  0  0  0  0  0
    1.0772   -0.5179   -0.0305 C   0  0  0  0  0  0  0  0  0  0  0  0
   -0.2714   -0.3680    0.5650 C   0  0  0  0  0  0  0  0  0  0  0  0
   -1.0493    0.8432    0.0991 C   0  0  0  0  0  0  0  0  0  0  0  0
   -2.4670    0.3923    0.4491 C   0  0  0  0  0  0  0  0  0  0  0  0
   -2.4354   -0.9564    0.6918 O   0  0  0  0  0  0  0  0  0  0  0  0
   -1.2663   -1.4468    0.1214 C   0  0  0  0  0  0  0  0  0  0  0  0
    3.6207   -0.4887    0.2258 H   0  0  0  0  0  0  0  0  0  0  0  0
    1.5996    1.5531    0.7547 H   0  0  0  0  0  0  0  0  0  0  0  0
    2.3482    0.0023   -1.8180 H   0  0  0  0  0  0  0  0  0  0  0  0
    0.8631    1.0906   -1.6297 H   0  0  0  0  0  0  0  0  0  0  0  0
    1.5668   -1.5220   -0.0243 H   0  0  0  0  0  0  0  0  0  0  0  0
   -0.2578   -0.4063    1.6746 H   0  0  0  0  0  0  0  0  0  0  0  0
   -1.0413    0.8876   -1.0203 H   0  0  0  0  0  0  0  0  0  0  0  0
   -0.7639    1.7732    0.5856 H   0  0  0  0  0  0  0  0  0  0  0  0
   -3.1801    0.5931   -0.3749 H   0  0  0  0  0  0  0  0  0  0  0  0
   -2.8220    0.9780    1.3374 H   0  0  0  0  0  0  0  0  0  0  0  0
   -0.9868   -2.4322    0.4683 H   0  0  0  0  0  0  0  0  0  0  0  0
   -1.4058   -1.4022   -0.9863 H   0  0  0  0  0  0  0  0  0  0  0  0
  1  2  1  0
  2  3  1  0
  3  4  1  0
  4  5  1  0
  5  6  1  0
  6  7  1  0
  7  8  1  0
  8  9  1  0
  4  2  1  0
  9  5  1  0
  1 10  1  0
  2 11  1  0
  3 12  1  0
  3 13  1  0
  4 14  1  0
  5 15  1  0
  6 16  1  0
  6 17  1  0
  7 18  1  0
  7 19  1  0
  9 20  1  0
  9 21  1  0
M  END
