
     RDKit          3D

 14 15  0  0  0  0  0  0  0  0999 V2000
   -2.0415    0.9056   -0.1174 O   0  0  0  0  0  0  0  0  0  0  0  0
   -0.8715    0.4062    0.3939 C   0  0  0  0  0  0  0  0  0  0  0  0
   -0.6355   -1.0755    0.2107 C   0  0  0  0  0  0  0  0  0  0  0  0
    0.7379   -0.8429   -0.3541 C   0  0  0  0  0  0  0  0  0  0  0  0
    1.6362    0.1953    0.1888 C   0  0  0  0  0  0  0  0  0  0  0  0
    0.3746    0.6487   -0.4368 C   0  0  0  0  0  0  0  0  0  0  0  0
   -1.9675    1.8885   -0.1845 H   0  0  0  0  0  0  0  0  0  0  0  0
   -0.7393    0.7385    1.4487 H   0  0  0  0  0  0  0  0  0  0  0  0
   -1.3908   -1.4828   -0.4843 H   0  0  0  0  0  0  0  0  0  0  0  0
   -0.5784   -1.6731    1.1279 H   0  0  0  0  0  0  0  0  0  0  0  0
    0.9629   -1.3853   -1.2700 H   0  0  0  0  0  0  0  0  0  0  0  0
    2.5533    0.3929   -0.3662 H   0  0  0  0  0  0  0  0  0  0  0  0
    1.6605    0.2785    1.3065 H   0  0  0  0  0  0  0  0  0  0  0  0
    0.2990    1.0054   -1.4633 H   0  0  0  0  0  0  0  0  0  0  0  0
  1  2  1  0
  2  3  1  0
  3  4  1  0
  4  5  1  0
  5  6  1  0
  6  2  1  0
  6  4  1  0
  1  7  1  0
  2  8  1  0
  3  9  1  0
  3 10  1  0
  4 11  1  0
  5 12  1  0
  5 13  1  0
  6 14  1  0
M  END
