
     RDKit          3D

 19 21  0  0  0  0  0  0  0  0999 V2000
    0.4122   -2.3868    0.1349 O   0  0  0  0  0  0  0  0  0  0  0  0
   -0.3583   -1.2718   -0.0857 C   0  0  0  0  0  0  0  0  0  0  0  0
   -0.1801   -0.2698    1.0691 C   0  0  0  0  0  0  0  0  0  0  0  0
    1.1646   -0.0057    0.4326 C   0  0  0  0  0  0  0  0  0  0  0  0
    2.0634   -1.0257    0.6059 O   0  0  0  0  0  0  0  0  0  0  0  0
    0.3732   -0.1719   -0.8716 C   0  0  0  0  0  0  0  0  0  0  0  0
   -0.6402    0.9129   -0.8814 C   0  0  0  0  0  0  0  0  0  0  0  0
   -0.6072    2.0700    0.0228 C   0  0  0  0  0  0  0  0  0  0  0  0
   -1.0997    0.8195    0.6200 C   0  0  0  0  0  0  0  0  0  0  0  0
   -0.1861   -3.1455    0.3163 H   0  0  0  0  0  0  0  0  0  0  0  0
   -1.4029   -1.4120   -0.3566 H   0  0  0  0  0  0  0  0  0  0  0  0
   -0.2265   -0.6560    2.0568 H   0  0  0  0  0  0  0  0  0  0  0  0
    1.6058    0.9754    0.5890 H   0  0  0  0  0  0  0  0  0  0  0  0
    2.8746   -0.7974    0.0483 H   0  0  0  0  0  0  0  0  0  0  0  0
    0.9039   -0.4600   -1.7400 H   0  0  0  0  0  0  0  0  0  0  0  0
   -1.4351    0.8143   -1.6302 H   0  0  0  0  0  0  0  0  0  0  0  0
    0.3219    2.5439    0.3815 H   0  0  0  0  0  0  0  0  0  0  0  0
   -1.4067    2.8369   -0.1736 H   0  0  0  0  0  0  0  0  0  0  0  0
   -2.1767    0.6296    0.7689 H   0  0  0  0  0  0  0  0  0  0  0  0
  1  2  1  0
  2  3  1  0
  3  4  1  0
  4  5  1  0
  4  6  1  0
  6  7  1  0
  7  8  1  0
  8  9  1  0
  6  2  1  0
  9  7  1  0
  9  3  1  0
  1 10  1  0
  2 11  1  0
  3 12  1  0
  4 13  1  0
  5 14  1  0
  6 15  1  0
  7 16  1  0
  8 17  1  0
  8 18  1  0
  9 19  1  0
M  END
