
     RDKit          3D

 19 21  0  0  0  0  0  0  0  0999 V2000
    2.3289   -0.2113    0.8595 O   0  0  0  0  0  0  0  0  0  0  0  0
    1.2831   -0.2079   -0.0879 C   0  0  0  0  0  0  0  0  0  0  0  0
    0.8055    1.1927   -0.1992 C   0  0  0  0  0  0  0  0  0  0  0  0
   -0.6350    1.4136   -0.3475 C   0  0  0  0  0  0  0  0  0  0  0  0
   -1.5472    0.3782    0.1981 C   0  0  0  0  0  0  0  0  0  0  0  0
   -1.8570   -0.5662   -0.7799 O   0  0  0  0  0  0  0  0  0  0  0  0
   -0.9692   -1.5058   -0.3381 C   0  0  0  0  0  0  0  0  0  0  0  0
    0.3011   -1.2241    0.3294 C   0  0  0  0  0  0  0  0  0  0  0  0
   -0.8957   -0.7028    0.9827 C   0  0  0  0  0  0  0  0  0  0  0  0
    3.1985   -0.3771    0.4726 H   0  0  0  0  0  0  0  0  0  0  0  0
    1.7650   -0.5703   -1.0446 H   0  0  0  0  0  0  0  0  0  0  0  0
    1.3283    1.6386   -1.0998 H   0  0  0  0  0  0  0  0  0  0  0  0
    1.1768    1.8409    0.6510 H   0  0  0  0  0  0  0  0  0  0  0  0
   -0.8988    1.5546   -1.4379 H   0  0  0  0  0  0  0  0  0  0  0  0
   -0.9418    2.3974    0.1193 H   0  0  0  0  0  0  0  0  0  0  0  0
   -2.4528    0.7625    0.7500 H   0  0  0  0  0  0  0  0  0  0  0  0
   -1.3932   -2.5309   -0.2803 H   0  0  0  0  0  0  0  0  0  0  0  0
    0.7719   -2.1214    0.8356 H   0  0  0  0  0  0  0  0  0  0  0  0
   -1.3683   -1.1607    1.8633 H   0  0  0  0  0  0  0  0  0  0  0  0
  1  2  1  0
  2  3  1  0
  3  4  1  0
  4  5  1  0
  5  6  1  0
  6  7  1  0
  7  8  1  0
  8  9  1  0
  8  2  1  0
  9  5  1  0
  9  7  1  0
  1 10  1  0
  2 11  1  0
  3 12  1  0
  3 13  1  0
  4 14  1  0
  4 15  1  0
  5 16  1  0
  7 17  1  0
  8 18  1  0
  9 19  1  0
M  END
