
     RDKit          3D

 21 22  0  0  0  0  0  0  0  0999 V2000
    0.5281   -1.1607    1.8791 O   0  0  0  0  0  0  0  0  0  0  0  0
    0.9706   -0.8600    0.6093 C   0  0  0  0  0  0  0  0  0  0  0  0
   -0.0182   -1.2341   -0.4692 C   0  0  0  0  0  0  0  0  0  0  0  0
    0.5348   -0.4088   -1.6139 C   0  0  0  0  0  0  0  0  0  0  0  0
    1.1396    0.6596   -1.1146 C   0  0  0  0  0  0  0  0  0  0  0  0
    1.0268    0.6544    0.3649 C   0  0  0  0  0  0  0  0  0  0  0  0
   -0.2801    1.3048    0.7532 C   0  0  0  0  0  0  0  0  0  0  0  0
   -1.4086    0.7873   -0.1226 C   0  0  0  0  0  0  0  0  0  0  0  0
   -1.3931   -0.7041   -0.1781 C   0  0  0  0  0  0  0  0  0  0  0  0
    1.2777   -0.9696    2.4979 H   0  0  0  0  0  0  0  0  0  0  0  0
    1.9467   -1.2623    0.3462 H   0  0  0  0  0  0  0  0  0  0  0  0
   -0.0003   -2.2993   -0.6913 H   0  0  0  0  0  0  0  0  0  0  0  0
    0.4094   -0.7192   -2.6557 H   0  0  0  0  0  0  0  0  0  0  0  0
    1.6377    1.4182   -1.6886 H   0  0  0  0  0  0  0  0  0  0  0  0
    1.8580    1.1192    0.8842 H   0  0  0  0  0  0  0  0  0  0  0  0
   -0.5408    1.1511    1.7991 H   0  0  0  0  0  0  0  0  0  0  0  0
   -0.1814    2.3795    0.5590 H   0  0  0  0  0  0  0  0  0  0  0  0
   -2.3735    1.1095    0.2943 H   0  0  0  0  0  0  0  0  0  0  0  0
   -1.2717    1.1946   -1.1475 H   0  0  0  0  0  0  0  0  0  0  0  0
   -2.0386   -1.0098   -1.0506 H   0  0  0  0  0  0  0  0  0  0  0  0
   -1.8230   -1.1503    0.7447 H   0  0  0  0  0  0  0  0  0  0  0  0
  1  2  1  0
  2  3  1  0
  3  4  1  0
  4  5  2  0
  5  6  1  0
  6  7  1  0
  7  8  1  0
  8  9  1  0
  6  2  1  0
  9  3  1  0
  1 10  1  0
  2 11  1  0
  3 12  1  0
  4 13  1  0
  5 14  1  0
  6 15  1  0
  7 16  1  0
  7 17  1  0
  8 18  1  0
  8 19  1  0
  9 20  1  0
  9 21  1  0
M  END
