
     RDKit          3D

 17 19  0  0  0  0  0  0  0  0999 V2000
   -2.4669   -0.5635   -0.2685 O   0  0  0  0  0  0  0  0  0  0  0  0
   -1.2345   -0.2084    0.2799 C   0  0  0  0  0  0  0  0  0  0  0  0
   -1.1368    1.2660    0.3725 C   0  0  0  0  0  0  0  0  0  0  0  0
    0.0194    1.7150   -0.0805 C   0  0  0  0  0  0  0  0  0  0  0  0
    0.8368    0.5853   -0.5331 C   0  0  0  0  0  0  0  0  0  0  0  0
    1.7424   -0.0810    0.4337 C   0  0  0  0  0  0  0  0  0  0  0  0
    1.3107   -0.9683    1.3937 O   0  0  0  0  0  0  0  0  0  0  0  0
    1.0090   -1.3905    0.1143 C   0  0  0  0  0  0  0  0  0  0  0  0
   -0.0814   -0.5993   -0.5736 C   0  0  0  0  0  0  0  0  0  0  0  0
   -2.7690   -1.4193    0.1530 H   0  0  0  0  0  0  0  0  0  0  0  0
   -1.1607   -0.5930    1.3276 H   0  0  0  0  0  0  0  0  0  0  0  0
   -1.9049    1.9371    0.7617 H   0  0  0  0  0  0  0  0  0  0  0  0
    0.3567    2.7608   -0.1288 H   0  0  0  0  0  0  0  0  0  0  0  0
    1.3453    0.7221   -1.5103 H   0  0  0  0  0  0  0  0  0  0  0  0
    2.8378   -0.0418    0.2569 H   0  0  0  0  0  0  0  0  0  0  0  0
    1.6027   -2.1285   -0.4212 H   0  0  0  0  0  0  0  0  0  0  0  0
   -0.3066   -0.9925   -1.5773 H   0  0  0  0  0  0  0  0  0  0  0  0
  1  2  1  0
  2  3  1  0
  3  4  2  0
  4  5  1  0
  5  6  1  0
  6  7  1  0
  7  8  1  0
  8  9  1  0
  9  2  1  0
  9  5  1  0
  8  6  1  0
  1 10  1  0
  2 11  1  0
  3 12  1  0
  4 13  1  0
  5 14  1  0
  6 15  1  0
  8 16  1  0
  9 17  1  0
M  END
