
     RDKit          3D

 19 20  0  0  0  0  0  0  0  0999 V2000
   -2.7512    0.2833    0.8321 O   0  0  0  0  0  0  0  0  0  0  0  0
   -1.8547    0.0893   -0.2260 C   0  0  0  0  0  0  0  0  0  0  0  0
   -1.0684   -1.1609   -0.0438 C   0  0  0  0  0  0  0  0  0  0  0  0
    0.2269   -1.3954   -0.1983 C   0  0  0  0  0  0  0  0  0  0  0  0
    1.3160   -0.4911   -0.6025 C   0  0  0  0  0  0  0  0  0  0  0  0
    2.3193   -0.2049    0.4375 C   0  0  0  0  0  0  0  0  0  0  0  0
    1.3068    0.8210    0.1931 C   0  0  0  0  0  0  0  0  0  0  0  0
    0.0866    0.8930    0.7881 O   0  0  0  0  0  0  0  0  0  0  0  0
   -0.8511    1.2475   -0.2105 C   0  0  0  0  0  0  0  0  0  0  0  0
   -2.2742    0.1997    1.6933 H   0  0  0  0  0  0  0  0  0  0  0  0
   -2.3978    0.1287   -1.1681 H   0  0  0  0  0  0  0  0  0  0  0  0
   -1.6662   -2.0149    0.2671 H   0  0  0  0  0  0  0  0  0  0  0  0
    0.5370   -2.4314    0.0089 H   0  0  0  0  0  0  0  0  0  0  0  0
    1.5019   -0.3517   -1.6806 H   0  0  0  0  0  0  0  0  0  0  0  0
    3.3427    0.0180    0.0686 H   0  0  0  0  0  0  0  0  0  0  0  0
    2.3355   -0.8367    1.3517 H   0  0  0  0  0  0  0  0  0  0  0  0
    1.6070    1.7521   -0.3584 H   0  0  0  0  0  0  0  0  0  0  0  0
   -0.3872    1.2555   -1.2156 H   0  0  0  0  0  0  0  0  0  0  0  0
   -1.3289    2.1988    0.0633 H   0  0  0  0  0  0  0  0  0  0  0  0
  1  2  1  0
  2  3  1  0
  3  4  2  0
  4  5  1  0
  5  6  1  0
  6  7  1  0
  7  8  1  0
  8  9  1  0
  9  2  1  0
  7  5  1  0
  1 10  1  0
  2 11  1  0
  3 12  1  0
  4 13  1  0
  5 14  1  0
  6 15  1  0
  6 16  1  0
  7 17  1  0
  9 18  1  0
  9 19  1  0
M  END
