
     RDKit          3D

 19 21  0  0  0  0  0  0  0  0999 V2000
   -2.3230   -0.4119    0.8718 O   0  0  0  0  0  0  0  0  0  0  0  0
   -2.0016    0.1535   -0.3560 C   0  0  0  0  0  0  0  0  0  0  0  0
   -0.8293   -0.3919   -1.0629 C   0  0  0  0  0  0  0  0  0  0  0  0
    0.1362   -1.1883   -0.2224 C   0  0  0  0  0  0  0  0  0  0  0  0
    1.1772   -0.1330    0.1221 C   0  0  0  0  0  0  0  0  0  0  0  0
    2.4213   -0.4418    0.7113 C   0  0  0  0  0  0  0  0  0  0  0  0
    2.2973   -0.0140   -0.6751 O   0  0  0  0  0  0  0  0  0  0  0  0
    0.3223    1.0673    0.3933 C   0  0  0  0  0  0  0  0  0  0  0  0
   -0.8332    1.0134   -0.5415 C   0  0  0  0  0  0  0  0  0  0  0  0
   -2.7051    0.2700    1.4706 H   0  0  0  0  0  0  0  0  0  0  0  0
   -2.8904    0.3828   -0.9740 H   0  0  0  0  0  0  0  0  0  0  0  0
   -0.7640   -0.4801   -2.1567 H   0  0  0  0  0  0  0  0  0  0  0  0
    0.5461   -2.0010   -0.8186 H   0  0  0  0  0  0  0  0  0  0  0  0
   -0.3647   -1.5154    0.7064 H   0  0  0  0  0  0  0  0  0  0  0  0
    2.9786    0.3283    1.2878 H   0  0  0  0  0  0  0  0  0  0  0  0
    2.7584   -1.4934    0.8041 H   0  0  0  0  0  0  0  0  0  0  0  0
    0.0244    1.0361    1.4768 H   0  0  0  0  0  0  0  0  0  0  0  0
    0.9301    1.9714    0.2477 H   0  0  0  0  0  0  0  0  0  0  0  0
   -0.8807    1.8481   -1.2848 H   0  0  0  0  0  0  0  0  0  0  0  0
  1  2  1  0
  2  3  1  0
  3  4  1  0
  4  5  1  0
  5  6  1  0
  6  7  1  0
  5  8  1  0
  8  9  1  0
  9  2  1  0
  9  3  1  0
  7  5  1  0
  1 10  1  0
  2 11  1  0
  3 12  1  0
  4 13  1  0
  4 14  1  0
  6 15  1  0
  6 16  1  0
  8 17  1  0
  8 18  1  0
  9 19  1  0
M  END
