
     RDKit          3D

 23 24  0  0  0  0  0  0  0  0999 V2000
   -2.1646    1.9572   -0.1905 O   0  0  0  0  0  0  0  0  0  0  0  0
   -1.9528    0.6562   -0.6623 C   0  0  0  0  0  0  0  0  0  0  0  0
   -1.9710   -0.3577    0.4622 C   0  0  0  0  0  0  0  0  0  0  0  0
   -0.5074   -0.6646    0.7492 C   0  0  0  0  0  0  0  0  0  0  0  0
    0.1521   -0.5298   -0.6148 C   0  0  0  0  0  0  0  0  0  0  0  0
    1.6013   -0.4364   -0.4771 C   0  0  0  0  0  0  0  0  0  0  0  0
    2.3397    0.5675    0.2914 C   0  0  0  0  0  0  0  0  0  0  0  0
    2.1942   -0.8361    0.8744 C   0  0  0  0  0  0  0  0  0  0  0  0
   -0.5664    0.6002   -1.2971 C   0  0  0  0  0  0  0  0  0  0  0  0
   -2.1531    1.9873    0.8065 H   0  0  0  0  0  0  0  0  0  0  0  0
   -2.7504    0.3911   -1.3721 H   0  0  0  0  0  0  0  0  0  0  0  0
   -2.4590   -1.2987    0.1970 H   0  0  0  0  0  0  0  0  0  0  0  0
   -2.4488    0.1008    1.3451 H   0  0  0  0  0  0  0  0  0  0  0  0
   -0.3289   -1.6451    1.1852 H   0  0  0  0  0  0  0  0  0  0  0  0
   -0.1148    0.1112    1.4676 H   0  0  0  0  0  0  0  0  0  0  0  0
   -0.1250   -1.4638   -1.1683 H   0  0  0  0  0  0  0  0  0  0  0  0
    2.1520   -0.8545   -1.3785 H   0  0  0  0  0  0  0  0  0  0  0  0
    3.3805    0.7889   -0.0160 H   0  0  0  0  0  0  0  0  0  0  0  0
    1.8638    1.4059    0.8262 H   0  0  0  0  0  0  0  0  0  0  0  0
    1.5794   -0.8795    1.7703 H   0  0  0  0  0  0  0  0  0  0  0  0
    3.0691   -1.5211    0.8199 H   0  0  0  0  0  0  0  0  0  0  0  0
   -0.7301    0.3625   -2.3768 H   0  0  0  0  0  0  0  0  0  0  0  0
   -0.0598    1.5586   -1.2417 H   0  0  0  0  0  0  0  0  0  0  0  0
  1  2  1  0
  2  3  1  0
  3  4  1  0
  4  5  1  0
  5  6  1  0
  6  7  1  0
  7  8  1  0
  5  9  1  0
  9  2  1  0
  8  6  1  0
  1 10  1  0
  2 11  1  0
  3 12  1  0
  3 13  1  0
  4 14  1  0
  4 15  1  0
  5 16  1  0
  6 17  1  0
  7 18  1  0
  7 19  1  0
  8 20  1  0
  8 21  1  0
  9 22  1  0
  9 23  1  0
M  END
