
     RDKit          3D

 19 21  0  0  0  0  0  0  0  0999 V2000
    2.5325   -0.6731   -1.3110 O   0  0  0  0  0  0  0  0  0  0  0  0
    1.1558   -0.6951   -1.0530 C   0  0  0  0  0  0  0  0  0  0  0  0
    0.7687   -0.7190    0.3716 C   0  0  0  0  0  0  0  0  0  0  0  0
   -0.6434   -0.8773    0.8188 C   0  0  0  0  0  0  0  0  0  0  0  0
   -1.5327   -0.5884   -0.3880 C   0  0  0  0  0  0  0  0  0  0  0  0
   -0.8637    0.7789   -0.3182 C   0  0  0  0  0  0  0  0  0  0  0  0
   -0.9904    0.5717    1.2006 C   0  0  0  0  0  0  0  0  0  0  0  0
    0.5906    0.5524   -0.5347 C   0  0  0  0  0  0  0  0  0  0  0  0
    1.4269    1.6119   -0.2864 O   0  0  0  0  0  0  0  0  0  0  0  0
    3.0256   -0.4319   -0.4895 H   0  0  0  0  0  0  0  0  0  0  0  0
    0.6169   -1.3855   -1.7290 H   0  0  0  0  0  0  0  0  0  0  0  0
    1.4958   -0.5564    1.1862 H   0  0  0  0  0  0  0  0  0  0  0  0
   -0.9347   -1.6419    1.4898 H   0  0  0  0  0  0  0  0  0  0  0  0
   -1.3577   -1.1741   -1.2719 H   0  0  0  0  0  0  0  0  0  0  0  0
   -2.5841   -0.5337   -0.0284 H   0  0  0  0  0  0  0  0  0  0  0  0
   -1.3689    1.6127   -0.7391 H   0  0  0  0  0  0  0  0  0  0  0  0
   -2.0328    0.5917    1.5421 H   0  0  0  0  0  0  0  0  0  0  0  0
   -0.2355    1.0741    1.7954 H   0  0  0  0  0  0  0  0  0  0  0  0
    0.9310    2.4831   -0.2553 H   0  0  0  0  0  0  0  0  0  0  0  0
  1  2  1  0
  2  3  1  0
  3  4  1  0
  4  5  1  0
  5  6  1  0
  6  7  1  0
  6  8  1  0
  8  9  1  0
  8  2  1  0
  8  3  1  0
  7  4  1  0
  1 10  1  0
  2 11  1  0
  3 12  1  0
  4 13  1  0
  5 14  1  0
  5 15  1  0
  6 16  1  0
  7 17  1  0
  7 18  1  0
  9 19  1  0
M  END
