
     RDKit          3D

 21 22  0  0  0  0  0  0  0  0999 V2000
   -2.3172    1.5530    0.8821 O   0  0  0  0  0  0  0  0  0  0  0  0
   -2.6236    0.4953    0.0314 C   0  0  0  0  0  0  0  0  0  0  0  0
   -2.3442   -0.9071    0.4157 C   0  0  0  0  0  0  0  0  0  0  0  0
   -1.4015   -0.2278   -0.4918 C   0  0  0  0  0  0  0  0  0  0  0  0
   -0.0508    0.1009    0.0615 C   0  0  0  0  0  0  0  0  0  0  0  0
    0.9637   -0.7820   -0.6563 C   0  0  0  0  0  0  0  0  0  0  0  0
    2.3553   -0.5318   -0.1751 C   0  0  0  0  0  0  0  0  0  0  0  0
    3.0151    0.7490   -0.2640 C   0  0  0  0  0  0  0  0  0  0  0  0
    2.4062    0.3357    0.9822 O   0  0  0  0  0  0  0  0  0  0  0  0
   -1.7056    2.1522    0.3504 H   0  0  0  0  0  0  0  0  0  0  0  0
   -3.4717    0.7035   -0.6426 H   0  0  0  0  0  0  0  0  0  0  0  0
   -2.0024   -1.1864    1.4277 H   0  0  0  0  0  0  0  0  0  0  0  0
   -2.9962   -1.6744   -0.0647 H   0  0  0  0  0  0  0  0  0  0  0  0
   -1.4327   -0.3849   -1.5933 H   0  0  0  0  0  0  0  0  0  0  0  0
    0.2292    1.1602   -0.0075 H   0  0  0  0  0  0  0  0  0  0  0  0
    0.0333   -0.1716    1.1450 H   0  0  0  0  0  0  0  0  0  0  0  0
    0.7226   -1.8391   -0.5268 H   0  0  0  0  0  0  0  0  0  0  0  0
    0.9498   -0.5783   -1.7548 H   0  0  0  0  0  0  0  0  0  0  0  0
    3.0012   -1.4297   -0.1303 H   0  0  0  0  0  0  0  0  0  0  0  0
    4.1044    0.8021   -0.1773 H   0  0  0  0  0  0  0  0  0  0  0  0
    2.5653    1.6612   -0.7260 H   0  0  0  0  0  0  0  0  0  0  0  0
  1  2  1  0
  2  3  1  0
  3  4  1  0
  4  5  1  0
  5  6  1  0
  6  7  1  0
  7  8  1  0
  8  9  1  0
  4  2  1  0
  9  7  1  0
  1 10  1  0
  2 11  1  0
  3 12  1  0
  3 13  1  0
  4 14  1  0
  5 15  1  0
  5 16  1  0
  6 17  1  0
  6 18  1  0
  7 19  1  0
  8 20  1  0
  8 21  1  0
M  END
