
     RDKit          3D

 23 24  0  0  0  0  0  0  0  0999 V2000
    3.1820   -1.2268    1.3707 O   0  0  0  0  0  0  0  0  0  0  0  0
    2.5171   -0.1183    0.8556 C   0  0  0  0  0  0  0  0  0  0  0  0
    2.5661    0.2106   -0.5890 C   0  0  0  0  0  0  0  0  0  0  0  0
    1.3080   -0.3549    0.0554 C   0  0  0  0  0  0  0  0  0  0  0  0
    0.1243    0.5523    0.0938 C   0  0  0  0  0  0  0  0  0  0  0  0
   -0.9817    0.0498   -0.8448 C   0  0  0  0  0  0  0  0  0  0  0  0
   -2.1871    0.9626   -0.8137 C   0  0  0  0  0  0  0  0  0  0  0  0
   -2.7409    0.1031    0.3029 C   0  0  0  0  0  0  0  0  0  0  0  0
   -1.8281   -1.0184   -0.2028 C   0  0  0  0  0  0  0  0  0  0  0  0
    3.9043   -1.5587    0.7908 H   0  0  0  0  0  0  0  0  0  0  0  0
    2.5871    0.7713    1.5477 H   0  0  0  0  0  0  0  0  0  0  0  0
    2.5539    1.2864   -0.8870 H   0  0  0  0  0  0  0  0  0  0  0  0
    3.1173   -0.4155   -1.3085 H   0  0  0  0  0  0  0  0  0  0  0  0
    1.1012   -1.4192   -0.2266 H   0  0  0  0  0  0  0  0  0  0  0  0
   -0.2833    0.6831    1.1104 H   0  0  0  0  0  0  0  0  0  0  0  0
    0.4101    1.5504   -0.2952 H   0  0  0  0  0  0  0  0  0  0  0  0
   -0.6497   -0.1294   -1.8665 H   0  0  0  0  0  0  0  0  0  0  0  0
   -2.8151    0.9315   -1.7254 H   0  0  0  0  0  0  0  0  0  0  0  0
   -1.8986    1.9816   -0.5427 H   0  0  0  0  0  0  0  0  0  0  0  0
   -3.8105   -0.1180    0.1811 H   0  0  0  0  0  0  0  0  0  0  0  0
   -2.4589    0.4948    1.2917 H   0  0  0  0  0  0  0  0  0  0  0  0
   -1.3346   -1.5947    0.5833 H   0  0  0  0  0  0  0  0  0  0  0  0
   -2.3829   -1.6234   -0.9528 H   0  0  0  0  0  0  0  0  0  0  0  0
  1  2  1  0
  2  3  1  0
  3  4  1  0
  4  5  1  0
  5  6  1  0
  6  7  1  0
  7  8  1  0
  8  9  1  0
  4  2  1  0
  9  6  1  0
  1 10  1  0
  2 11  1  0
  3 12  1  0
  3 13  1  0
  4 14  1  0
  5 15  1  0
  5 16  1  0
  6 17  1  0
  7 18  1  0
  7 19  1  0
  8 20  1  0
  8 21  1  0
  9 22  1  0
  9 23  1  0
M  END
