
     RDKit          3D

 17 18  0  0  0  0  0  0  0  0999 V2000
    0.2138    1.7123   -1.3381 O   0  0  0  0  0  0  0  0  0  0  0  0
    0.0456    1.0580   -0.1338 C   0  0  0  0  0  0  0  0  0  0  0  0
    1.1632    0.0691    0.1399 C   0  0  0  0  0  0  0  0  0  0  0  0
    1.7774   -0.4199   -1.0308 O   0  0  0  0  0  0  0  0  0  0  0  0
    0.0828   -0.9267    0.5539 C   0  0  0  0  0  0  0  0  0  0  0  0
   -0.0714   -1.2587    1.8685 O   0  0  0  0  0  0  0  0  0  0  0  0
   -0.8018   -1.3750   -0.5264 C   0  0  0  0  0  0  0  0  0  0  0  0
   -1.0061    0.0075   -0.0731 C   0  0  0  0  0  0  0  0  0  0  0  0
   -2.1165    0.2649    0.7190 O   0  0  0  0  0  0  0  0  0  0  0  0
    0.9194    2.4055   -1.1897 H   0  0  0  0  0  0  0  0  0  0  0  0
   -0.0538    1.7821    0.7215 H   0  0  0  0  0  0  0  0  0  0  0  0
    1.8616    0.3494    0.9429 H   0  0  0  0  0  0  0  0  0  0  0  0
    2.4591    0.1881   -1.3768 H   0  0  0  0  0  0  0  0  0  0  0  0
    0.3674   -0.5354    2.4135 H   0  0  0  0  0  0  0  0  0  0  0  0
   -1.5763   -2.1060   -0.2672 H   0  0  0  0  0  0  0  0  0  0  0  0
   -0.3503   -1.4997   -1.5359 H   0  0  0  0  0  0  0  0  0  0  0  0
   -2.9141    0.2846    0.1127 H   0  0  0  0  0  0  0  0  0  0  0  0
  1  2  1  0
  2  3  1  0
  3  4  1  0
  3  5  1  0
  5  6  1  0
  5  7  1  0
  7  8  1  0
  8  9  1  0
  8  2  1  0
  8  5  1  0
  1 10  1  0
  2 11  1  0
  3 12  1  0
  4 13  1  0
  6 14  1  0
  7 15  1  0
  7 16  1  0
  9 17  1  0
M  END
