
     RDKit          3D

 21 21  0  0  0  0  0  0  0  0999 V2000
   -1.2435    1.6257    1.1040 O   0  0  0  0  0  0  0  0  0  0  0  0
   -0.9877    0.9327   -0.0587 C   0  0  0  0  0  0  0  0  0  0  0  0
   -1.6293   -0.4392   -0.0695 C   0  0  0  0  0  0  0  0  0  0  0  0
   -0.6925   -1.3615   -0.7855 C   0  0  0  0  0  0  0  0  0  0  0  0
    0.5342   -1.6801   -0.4418 C   0  0  0  0  0  0  0  0  0  0  0  0
    1.2891   -1.1871    0.7624 C   0  0  0  0  0  0  0  0  0  0  0  0
    1.3344    0.3089    0.6687 C   0  0  0  0  0  0  0  0  0  0  0  0
    0.4744    0.8819   -0.4057 C   0  0  0  0  0  0  0  0  0  0  0  0
    0.8860    2.2168   -0.6059 O   0  0  0  0  0  0  0  0  0  0  0  0
   -2.1961    1.5078    1.3321 H   0  0  0  0  0  0  0  0  0  0  0  0
   -1.4858    1.5096   -0.8911 H   0  0  0  0  0  0  0  0  0  0  0  0
   -2.6379   -0.4519   -0.4703 H   0  0  0  0  0  0  0  0  0  0  0  0
   -1.6347   -0.7893    0.9987 H   0  0  0  0  0  0  0  0  0  0  0  0
   -1.0895   -1.8080   -1.6884 H   0  0  0  0  0  0  0  0  0  0  0  0
    1.0861   -2.3719   -1.0776 H   0  0  0  0  0  0  0  0  0  0  0  0
    2.2531   -1.6725    0.8873 H   0  0  0  0  0  0  0  0  0  0  0  0
    0.6338   -1.4380    1.6435 H   0  0  0  0  0  0  0  0  0  0  0  0
    2.4009    0.5774    0.4112 H   0  0  0  0  0  0  0  0  0  0  0  0
    1.1065    0.8271    1.6154 H   0  0  0  0  0  0  0  0  0  0  0  0
    0.5879    0.3814   -1.3823 H   0  0  0  0  0  0  0  0  0  0  0  0
    1.0105    2.4304   -1.5465 H   0  0  0  0  0  0  0  0  0  0  0  0
  1  2  1  0
  2  3  1  0
  3  4  1  0
  4  5  2  0
  5  6  1  0
  6  7  1  0
  7  8  1  0
  8  9  1  0
  8  2  1  0
  1 10  1  0
  2 11  1  0
  3 12  1  0
  3 13  1  0
  4 14  1  0
  5 15  1  0
  6 16  1  0
  6 17  1  0
  7 18  1  0
  7 19  1  0
  8 20  1  0
  9 21  1  0
M  END
