
     RDKit          3D

 21 23  0  0  0  0  0  0  0  0999 V2000
    1.3219   -1.9002   -0.9893 O   0  0  0  0  0  0  0  0  0  0  0  0
    1.3670   -0.6403   -0.4463 C   0  0  0  0  0  0  0  0  0  0  0  0
    0.4922   -0.4516    0.8063 C   0  0  0  0  0  0  0  0  0  0  0  0
    0.8147    1.0040    1.1079 C   0  0  0  0  0  0  0  0  0  0  0  0
    0.6485    1.5831   -0.3129 C   0  0  0  0  0  0  0  0  0  0  0  0
    0.3185    0.3108   -1.0517 C   0  0  0  0  0  0  0  0  0  0  0  0
   -0.6405   -0.3308   -0.1245 C   0  0  0  0  0  0  0  0  0  0  0  0
   -1.7561   -1.1416   -0.3557 C   0  0  0  0  0  0  0  0  0  0  0  0
   -1.9045    0.2432    0.3166 C   0  0  0  0  0  0  0  0  0  0  0  0
    1.6837   -2.5937   -0.4076 H   0  0  0  0  0  0  0  0  0  0  0  0
    2.3518   -0.1784   -0.3014 H   0  0  0  0  0  0  0  0  0  0  0  0
    0.5578   -1.1718    1.5688 H   0  0  0  0  0  0  0  0  0  0  0  0
    1.8566    1.1510    1.4273 H   0  0  0  0  0  0  0  0  0  0  0  0
    0.0642    1.4597    1.7755 H   0  0  0  0  0  0  0  0  0  0  0  0
    1.5467    2.0839   -0.6572 H   0  0  0  0  0  0  0  0  0  0  0  0
   -0.2648    2.2243   -0.3627 H   0  0  0  0  0  0  0  0  0  0  0  0
    0.1976    0.3093   -2.0983 H   0  0  0  0  0  0  0  0  0  0  0  0
   -1.9702   -2.0281    0.2979 H   0  0  0  0  0  0  0  0  0  0  0  0
   -2.2370   -1.2233   -1.3416 H   0  0  0  0  0  0  0  0  0  0  0  0
   -2.3426    1.0544   -0.2620 H   0  0  0  0  0  0  0  0  0  0  0  0
   -2.1055    0.2363    1.4108 H   0  0  0  0  0  0  0  0  0  0  0  0
  1  2  1  0
  2  3  1  0
  3  4  1  0
  4  5  1  0
  5  6  1  0
  6  7  1  0
  7  8  1  0
  8  9  1  0
  6  2  1  0
  9  7  1  0
  7  3  1  0
  1 10  1  0
  2 11  1  0
  3 12  1  0
  4 13  1  0
  4 14  1  0
  5 15  1  0
  5 16  1  0
  6 17  1  0
  8 18  1  0
  8 19  1  0
  9 20  1  0
  9 21  1  0
M  END
