
     RDKit          3D

 19 20  0  0  0  0  0  0  0  0999 V2000
    2.3793    1.5922   -0.2430 O   0  0  0  0  0  0  0  0  0  0  0  0
    1.4685    0.7886    0.4113 C   0  0  0  0  0  0  0  0  0  0  0  0
    1.4800   -0.6134   -0.2262 C   0  0  0  0  0  0  0  0  0  0  0  0
   -0.0002   -0.5605   -0.0223 C   0  0  0  0  0  0  0  0  0  0  0  0
   -0.4911   -1.0782    1.1554 O   0  0  0  0  0  0  0  0  0  0  0  0
   -0.9097   -0.7868   -1.1976 C   0  0  0  0  0  0  0  0  0  0  0  0
   -2.0326    0.1742   -0.7265 C   0  0  0  0  0  0  0  0  0  0  0  0
   -1.1540    1.3649   -0.4077 C   0  0  0  0  0  0  0  0  0  0  0  0
    0.0384    0.9617   -0.0394 C   0  0  0  0  0  0  0  0  0  0  0  0
    2.9835    1.0922   -0.8506 H   0  0  0  0  0  0  0  0  0  0  0  0
    1.5909    0.7251    1.5117 H   0  0  0  0  0  0  0  0  0  0  0  0
    1.8074   -0.6356   -1.2668 H   0  0  0  0  0  0  0  0  0  0  0  0
    1.9467   -1.3617    0.4449 H   0  0  0  0  0  0  0  0  0  0  0  0
   -0.7201   -2.0272    0.9875 H   0  0  0  0  0  0  0  0  0  0  0  0
   -1.2781   -1.8044   -1.2899 H   0  0  0  0  0  0  0  0  0  0  0  0
   -0.4626   -0.3677   -2.1236 H   0  0  0  0  0  0  0  0  0  0  0  0
   -2.4217   -0.2406    0.2095 H   0  0  0  0  0  0  0  0  0  0  0  0
   -2.7506    0.3770   -1.5142 H   0  0  0  0  0  0  0  0  0  0  0  0
   -1.4738    2.4004   -0.4771 H   0  0  0  0  0  0  0  0  0  0  0  0
  1  2  1  0
  2  3  1  0
  3  4  1  0
  4  5  1  0
  4  6  1  0
  6  7  1  0
  7  8  1  0
  8  9  2  0
  9  2  1  0
  9  4  1  0
  1 10  1  0
  2 11  1  0
  3 12  1  0
  3 13  1  0
  5 14  1  0
  6 15  1  0
  6 16  1  0
  7 17  1  0
  7 18  1  0
  8 19  1  0
M  END
