
     RDKit          3D

 21 22  0  0  0  0  0  0  0  0999 V2000
    0.3692    2.3449   -0.5678 O   0  0  0  0  0  0  0  0  0  0  0  0
    0.3801    1.3559    0.3677 C   0  0  0  0  0  0  0  0  0  0  0  0
   -0.9327    0.6286    0.5252 C   0  0  0  0  0  0  0  0  0  0  0  0
   -1.2917   -0.1603   -0.7083 C   0  0  0  0  0  0  0  0  0  0  0  0
   -0.4578   -1.4339   -0.6702 C   0  0  0  0  0  0  0  0  0  0  0  0
    0.5547   -1.0712    0.3861 C   0  0  0  0  0  0  0  0  0  0  0  0
   -0.4211   -0.5049    1.4357 C   0  0  0  0  0  0  0  0  0  0  0  0
    1.2981    0.1895    0.0032 C   0  0  0  0  0  0  0  0  0  0  0  0
    1.5765    0.2239   -1.3642 O   0  0  0  0  0  0  0  0  0  0  0  0
   -0.2394    2.2446   -1.3137 H   0  0  0  0  0  0  0  0  0  0  0  0
    0.6554    1.7410    1.3702 H   0  0  0  0  0  0  0  0  0  0  0  0
   -1.7313    1.1978    0.9664 H   0  0  0  0  0  0  0  0  0  0  0  0
   -1.0696    0.4090   -1.6494 H   0  0  0  0  0  0  0  0  0  0  0  0
   -2.3759   -0.3903   -0.7093 H   0  0  0  0  0  0  0  0  0  0  0  0
   -0.0351   -1.7039   -1.6288 H   0  0  0  0  0  0  0  0  0  0  0  0
   -1.1198   -2.2136   -0.2196 H   0  0  0  0  0  0  0  0  0  0  0  0
    1.1586   -1.8721    0.7540 H   0  0  0  0  0  0  0  0  0  0  0  0
   -1.2125   -1.2135    1.6762 H   0  0  0  0  0  0  0  0  0  0  0  0
    0.1488   -0.1117    2.2774 H   0  0  0  0  0  0  0  0  0  0  0  0
    2.2075    0.2882    0.6009 H   0  0  0  0  0  0  0  0  0  0  0  0
    2.5380    0.0519   -1.5316 H   0  0  0  0  0  0  0  0  0  0  0  0
  1  2  1  0
  2  3  1  0
  3  4  1  0
  4  5  1  0
  5  6  1  0
  6  7  1  0
  6  8  1  0
  8  9  1  0
  8  2  1  0
  7  3  1  0
  1 10  1  0
  2 11  1  0
  3 12  1  0
  4 13  1  0
  4 14  1  0
  5 15  1  0
  5 16  1  0
  6 17  1  0
  7 18  1  0
  7 19  1  0
  8 20  1  0
  9 21  1  0
M  END
