
     RDKit          3D

 21 22  0  0  0  0  0  0  0  0999 V2000
    2.1369   -0.1734   -1.1049 O   0  0  0  0  0  0  0  0  0  0  0  0
    1.3905   -0.2337    0.0429 C   0  0  0  0  0  0  0  0  0  0  0  0
    0.8447    1.1321    0.4630 C   0  0  0  0  0  0  0  0  0  0  0  0
   -0.5427    0.8740    0.9320 C   0  0  0  0  0  0  0  0  0  0  0  0
   -1.4470    0.8495   -0.3002 C   0  0  0  0  0  0  0  0  0  0  0  0
   -0.7768   -0.2883   -1.0886 C   0  0  0  0  0  0  0  0  0  0  0  0
    0.0978   -1.0158   -0.1210 C   0  0  0  0  0  0  0  0  0  0  0  0
    0.2456   -2.3384   -0.3039 O   0  0  0  0  0  0  0  0  0  0  0  0
   -0.5672   -0.6385    1.2146 C   0  0  0  0  0  0  0  0  0  0  0  0
    2.6709    0.6582   -1.1776 H   0  0  0  0  0  0  0  0  0  0  0  0
    1.9296   -0.6919    0.9099 H   0  0  0  0  0  0  0  0  0  0  0  0
    1.4936    1.6399    1.1795 H   0  0  0  0  0  0  0  0  0  0  0  0
    0.7780    1.7892   -0.4519 H   0  0  0  0  0  0  0  0  0  0  0  0
   -0.9122    1.4666    1.7392 H   0  0  0  0  0  0  0  0  0  0  0  0
   -1.4457    1.7875   -0.8442 H   0  0  0  0  0  0  0  0  0  0  0  0
   -2.4402    0.5233    0.0729 H   0  0  0  0  0  0  0  0  0  0  0  0
   -1.5450   -0.9034   -1.5574 H   0  0  0  0  0  0  0  0  0  0  0  0
   -0.1172    0.2391   -1.8272 H   0  0  0  0  0  0  0  0  0  0  0  0
   -0.2488   -2.7406   -1.0571 H   0  0  0  0  0  0  0  0  0  0  0  0
    0.0477   -0.9105    2.0656 H   0  0  0  0  0  0  0  0  0  0  0  0
   -1.5926   -1.0248    1.2144 H   0  0  0  0  0  0  0  0  0  0  0  0
  1  2  1  0
  2  3  1  0
  3  4  1  0
  4  5  1  0
  5  6  1  0
  6  7  1  0
  7  8  1  0
  7  9  1  0
  7  2  1  0
  9  4  1  0
  1 10  1  0
  2 11  1  0
  3 12  1  0
  3 13  1  0
  4 14  1  0
  5 15  1  0
  5 16  1  0
  6 17  1  0
  6 18  1  0
  8 19  1  0
  9 20  1  0
  9 21  1  0
M  END
