
     RDKit          3D

 21 22  0  0  0  0  0  0  0  0999 V2000
   -0.9133    1.5392   -1.8382 O   0  0  0  0  0  0  0  0  0  0  0  0
   -0.8859    0.2849   -1.1855 C   0  0  0  0  0  0  0  0  0  0  0  0
   -2.3049   -0.0585   -0.7221 C   0  0  0  0  0  0  0  0  0  0  0  0
   -1.8145    0.1102    0.6929 C   0  0  0  0  0  0  0  0  0  0  0  0
   -0.3789    0.3497    0.2080 C   0  0  0  0  0  0  0  0  0  0  0  0
    0.5537   -0.7413    0.6522 C   0  0  0  0  0  0  0  0  0  0  0  0
    1.8018   -0.8364   -0.1388 C   0  0  0  0  0  0  0  0  0  0  0  0
    2.7891    0.1998   -0.2855 C   0  0  0  0  0  0  0  0  0  0  0  0
    2.9904   -0.8303    0.7554 O   0  0  0  0  0  0  0  0  0  0  0  0
   -0.2092    2.0734   -1.4023 H   0  0  0  0  0  0  0  0  0  0  0  0
   -0.4728   -0.4664   -1.8586 H   0  0  0  0  0  0  0  0  0  0  0  0
   -2.6137   -1.0852   -0.9710 H   0  0  0  0  0  0  0  0  0  0  0  0
   -3.0688    0.6801   -1.0030 H   0  0  0  0  0  0  0  0  0  0  0  0
   -2.2612    0.9556    1.2143 H   0  0  0  0  0  0  0  0  0  0  0  0
   -1.9174   -0.8587    1.2638 H   0  0  0  0  0  0  0  0  0  0  0  0
   -0.0348    1.3744    0.4723 H   0  0  0  0  0  0  0  0  0  0  0  0
   -0.0181   -1.6943    0.6057 H   0  0  0  0  0  0  0  0  0  0  0  0
    0.7175   -0.5726    1.7576 H   0  0  0  0  0  0  0  0  0  0  0  0
    1.8315   -1.6924   -0.8627 H   0  0  0  0  0  0  0  0  0  0  0  0
    3.5862    0.0537   -1.0407 H   0  0  0  0  0  0  0  0  0  0  0  0
    2.6230    1.2152    0.1456 H   0  0  0  0  0  0  0  0  0  0  0  0
  1  2  1  0
  2  3  1  0
  3  4  1  0
  4  5  1  0
  5  6  1  0
  6  7  1  0
  7  8  1  0
  8  9  1  0
  5  2  1  0
  9  7  1  0
  1 10  1  0
  2 11  1  0
  3 12  1  0
  3 13  1  0
  4 14  1  0
  4 15  1  0
  5 16  1  0
  6 17  1  0
  6 18  1  0
  7 19  1  0
  8 20  1  0
  8 21  1  0
M  END
