
     RDKit          3D

 18 19  0  0  0  0  0  0  0  0999 V2000
   -0.5441    1.6691   -1.0790 O   0  0  0  0  0  0  0  0  0  0  0  0
   -0.7331    0.7449   -0.0660 C   0  0  0  0  0  0  0  0  0  0  0  0
   -1.8366   -0.2359   -0.3783 C   0  0  0  0  0  0  0  0  0  0  0  0
   -1.2738   -1.5027   -0.3773 O   0  0  0  0  0  0  0  0  0  0  0  0
   -0.1852   -1.4540    0.5111 C   0  0  0  0  0  0  0  0  0  0  0  0
    0.4489   -0.1519    0.1560 C   0  0  0  0  0  0  0  0  0  0  0  0
    1.6300   -0.0118   -0.6862 C   0  0  0  0  0  0  0  0  0  0  0  0
    1.6885    0.2603    0.7772 C   0  0  0  0  0  0  0  0  0  0  0  0
   -0.9190    2.5300   -0.7544 H   0  0  0  0  0  0  0  0  0  0  0  0
   -0.9743    1.2318    0.9039 H   0  0  0  0  0  0  0  0  0  0  0  0
   -2.2638   -0.0834   -1.4015 H   0  0  0  0  0  0  0  0  0  0  0  0
   -2.6443   -0.1897    0.3796 H   0  0  0  0  0  0  0  0  0  0  0  0
    0.4333   -2.3332    0.4010 H   0  0  0  0  0  0  0  0  0  0  0  0
   -0.6459   -1.3342    1.5268 H   0  0  0  0  0  0  0  0  0  0  0  0
    2.1014   -0.8839   -1.1452 H   0  0  0  0  0  0  0  0  0  0  0  0
    1.7141    0.9230   -1.3157 H   0  0  0  0  0  0  0  0  0  0  0  0
    1.7665    1.3075    1.1434 H   0  0  0  0  0  0  0  0  0  0  0  0
    2.2374   -0.4859    1.4048 H   0  0  0  0  0  0  0  0  0  0  0  0
  1  2  1  0
  2  3  1  0
  3  4  1  0
  4  5  1  0
  5  6  1  0
  6  7  1  0
  7  8  1  0
  6  2  1  0
  8  6  1  0
  1  9  1  0
  2 10  1  0
  3 11  1  0
  3 12  1  0
  5 13  1  0
  5 14  1  0
  7 15  1  0
  7 16  1  0
  8 17  1  0
  8 18  1  0
M  END
