
     RDKit          3D

 19 21  0  0  0  0  0  0  0  0999 V2000
   -2.3007   -1.0641   -0.9621 O   0  0  0  0  0  0  0  0  0  0  0  0
   -1.3495   -0.1031   -0.7144 C   0  0  0  0  0  0  0  0  0  0  0  0
   -1.8212    0.9984    0.1943 C   0  0  0  0  0  0  0  0  0  0  0  0
   -0.6389    1.5538    0.6753 O   0  0  0  0  0  0  0  0  0  0  0  0
    0.2526    0.5306    0.8852 C   0  0  0  0  0  0  0  0  0  0  0  0
    1.5139    0.6706    0.0941 C   0  0  0  0  0  0  0  0  0  0  0  0
    2.3914   -0.5581   -0.0559 C   0  0  0  0  0  0  0  0  0  0  0  0
    1.1166   -0.4750   -0.7679 C   0  0  0  0  0  0  0  0  0  0  0  0
   -0.1383   -0.6273    0.0207 C   0  0  0  0  0  0  0  0  0  0  0  0
   -1.9720   -1.9891   -0.8651 H   0  0  0  0  0  0  0  0  0  0  0  0
   -1.0585    0.3369   -1.7007 H   0  0  0  0  0  0  0  0  0  0  0  0
   -2.3383    1.7619   -0.4069 H   0  0  0  0  0  0  0  0  0  0  0  0
   -2.4504    0.5955    1.0259 H   0  0  0  0  0  0  0  0  0  0  0  0
    0.4467    0.2458    1.9400 H   0  0  0  0  0  0  0  0  0  0  0  0
    1.8161    1.6226   -0.3546 H   0  0  0  0  0  0  0  0  0  0  0  0
    2.4293   -1.2250    0.8431 H   0  0  0  0  0  0  0  0  0  0  0  0
    3.3665   -0.3435   -0.5192 H   0  0  0  0  0  0  0  0  0  0  0  0
    1.0140   -0.3731   -1.8550 H   0  0  0  0  0  0  0  0  0  0  0  0
   -0.2795   -1.5578    0.5858 H   0  0  0  0  0  0  0  0  0  0  0  0
  1  2  1  0
  2  3  1  0
  3  4  1  0
  4  5  1  0
  5  6  1  0
  6  7  1  0
  7  8  1  0
  8  9  1  0
  9  2  1  0
  9  5  1  0
  8  6  1  0
  1 10  1  0
  2 11  1  0
  3 12  1  0
  3 13  1  0
  5 14  1  0
  6 15  1  0
  7 16  1  0
  7 17  1  0
  8 18  1  0
  9 19  1  0
M  END
