
     RDKit          3D

 21 23  0  0  0  0  0  0  0  0999 V2000
   -3.3340    0.8252   -0.3450 O   0  0  0  0  0  0  0  0  0  0  0  0
   -2.2268    0.0144   -0.2128 C   0  0  0  0  0  0  0  0  0  0  0  0
   -1.8539   -0.5578    1.1279 C   0  0  0  0  0  0  0  0  0  0  0  0
   -1.0481    0.5524    0.6126 C   0  0  0  0  0  0  0  0  0  0  0  0
    0.2588    0.3852   -0.0757 C   0  0  0  0  0  0  0  0  0  0  0  0
    0.7024   -0.9849   -0.4265 C   0  0  0  0  0  0  0  0  0  0  0  0
    2.0672   -0.7579    0.1261 C   0  0  0  0  0  0  0  0  0  0  0  0
    2.7482    0.5480    0.0789 C   0  0  0  0  0  0  0  0  0  0  0  0
    1.4881    0.4946    0.8260 C   0  0  0  0  0  0  0  0  0  0  0  0
   -3.0205    1.6937   -0.7312 H   0  0  0  0  0  0  0  0  0  0  0  0
   -2.0229   -0.6426   -1.0606 H   0  0  0  0  0  0  0  0  0  0  0  0
   -2.5988   -0.2817    1.9302 H   0  0  0  0  0  0  0  0  0  0  0  0
   -1.5054   -1.5859    1.2130 H   0  0  0  0  0  0  0  0  0  0  0  0
   -1.2221    1.5780    1.0196 H   0  0  0  0  0  0  0  0  0  0  0  0
    0.3625    1.1267   -0.9069 H   0  0  0  0  0  0  0  0  0  0  0  0
    0.7543   -1.2170   -1.5296 H   0  0  0  0  0  0  0  0  0  0  0  0
    0.1533   -1.8337    0.0515 H   0  0  0  0  0  0  0  0  0  0  0  0
    2.5081   -1.5345    0.7595 H   0  0  0  0  0  0  0  0  0  0  0  0
    3.6824    0.6535    0.6184 H   0  0  0  0  0  0  0  0  0  0  0  0
    2.7169    1.1483   -0.8763 H   0  0  0  0  0  0  0  0  0  0  0  0
    1.3905    0.3762    1.8961 H   0  0  0  0  0  0  0  0  0  0  0  0
  1  2  1  0
  2  3  1  0
  3  4  1  0
  4  5  1  0
  5  6  1  0
  6  7  1  0
  7  8  1  0
  8  9  1  0
  4  2  1  0
  9  5  1  0
  9  7  1  0
  1 10  1  0
  2 11  1  0
  3 12  1  0
  3 13  1  0
  4 14  1  0
  5 15  1  0
  6 16  1  0
  6 17  1  0
  7 18  1  0
  8 19  1  0
  8 20  1  0
  9 21  1  0
M  END
