
     RDKit          3D

 16 17  0  0  0  0  0  0  0  0999 V2000
   -1.0074   -0.6612   -1.7489 O   0  0  0  0  0  0  0  0  0  0  0  0
   -0.8538   -0.7581   -0.3851 C   0  0  0  0  0  0  0  0  0  0  0  0
    0.6057   -0.9092   -0.0276 C   0  0  0  0  0  0  0  0  0  0  0  0
    0.2210   -0.3588    1.3041 C   0  0  0  0  0  0  0  0  0  0  0  0
   -0.5060    0.5395    0.3282 C   0  0  0  0  0  0  0  0  0  0  0  0
   -1.2604    1.4960    0.5729 O   0  0  0  0  0  0  0  0  0  0  0  0
    0.7582    0.5129   -0.4918 C   0  0  0  0  0  0  0  0  0  0  0  0
    1.8249    1.2172    0.0149 O   0  0  0  0  0  0  0  0  0  0  0  0
   -1.9713   -0.6320   -1.9437 H   0  0  0  0  0  0  0  0  0  0  0  0
   -1.5617   -1.3731    0.1706 H   0  0  0  0  0  0  0  0  0  0  0  0
    1.1964   -1.6872   -0.2404 H   0  0  0  0  0  0  0  0  0  0  0  0
    0.9844    0.1097    1.9147 H   0  0  0  0  0  0  0  0  0  0  0  0
   -0.4979   -1.0247    1.8113 H   0  0  0  0  0  0  0  0  0  0  0  0
   -1.1164    2.3943    0.1516 H   0  0  0  0  0  0  0  0  0  0  0  0
    0.6132    0.5589   -1.5946 H   0  0  0  0  0  0  0  0  0  0  0  0
    2.5711    0.5759    0.1637 H   0  0  0  0  0  0  0  0  0  0  0  0
  1  2  1  0
  2  3  1  0
  3  4  1  0
  4  5  1  0
  5  6  1  0
  5  7  1  0
  7  8  1  0
  5  2  1  0
  7  3  1  0
  1  9  1  0
  2 10  1  0
  3 11  1  0
  4 12  1  0
  4 13  1  0
  6 14  1  0
  7 15  1  0
  8 16  1  0
M  END
