
     RDKit          3D

 17 19  0  0  0  0  0  0  0  0999 V2000
   -2.4199   -0.1211    0.1308 O   0  0  0  0  0  0  0  0  0  0  0  0
   -1.2598   -0.7799   -0.1957 C   0  0  0  0  0  0  0  0  0  0  0  0
   -0.1455   -0.7325    0.8001 C   0  0  0  0  0  0  0  0  0  0  0  0
   -0.0405    0.7285    0.4897 C   0  0  0  0  0  0  0  0  0  0  0  0
    1.3883    1.0276    0.5582 C   0  0  0  0  0  0  0  0  0  0  0  0
    1.9617   -0.0617   -0.0095 C   0  0  0  0  0  0  0  0  0  0  0  0
    0.7875   -0.8903   -0.3708 C   0  0  0  0  0  0  0  0  0  0  0  0
   -0.2248    0.0869   -0.8664 C   0  0  0  0  0  0  0  0  0  0  0  0
   -0.3012    0.6603   -1.9761 O   0  0  0  0  0  0  0  0  0  0  0  0
   -2.8614    0.1993   -0.7177 H   0  0  0  0  0  0  0  0  0  0  0  0
   -1.3814   -1.7901   -0.6585 H   0  0  0  0  0  0  0  0  0  0  0  0
   -0.0830   -1.1831    1.6907 H   0  0  0  0  0  0  0  0  0  0  0  0
   -0.7715    1.4094    0.8457 H   0  0  0  0  0  0  0  0  0  0  0  0
    1.8641    1.9108    0.9667 H   0  0  0  0  0  0  0  0  0  0  0  0
    3.0128   -0.2648   -0.1567 H   0  0  0  0  0  0  0  0  0  0  0  0
    0.9152   -1.8369   -0.8290 H   0  0  0  0  0  0  0  0  0  0  0  0
   -0.4405    1.6378   -2.0245 H   0  0  0  0  0  0  0  0  0  0  0  0
  1  2  1  0
  2  3  1  0
  3  4  1  0
  4  5  1  0
  5  6  2  0
  6  7  1  0
  7  8  1  0
  8  9  1  0
  8  2  1  0
  7  3  1  0
  8  4  1  0
  1 10  1  0
  2 11  1  0
  3 12  1  0
  4 13  1  0
  5 14  1  0
  6 15  1  0
  7 16  1  0
  9 17  1  0
M  END
