
     RDKit          3D

 21 22  0  0  0  0  0  0  0  0999 V2000
    0.6086    2.4920   -0.5408 O   0  0  0  0  0  0  0  0  0  0  0  0
    0.2392    1.3328    0.1735 C   0  0  0  0  0  0  0  0  0  0  0  0
   -1.2338    1.1030    0.1609 C   0  0  0  0  0  0  0  0  0  0  0  0
   -1.7001   -0.3043    0.1797 C   0  0  0  0  0  0  0  0  0  0  0  0
   -1.1042   -1.1931   -0.6533 O   0  0  0  0  0  0  0  0  0  0  0  0
   -0.0590   -1.9189   -0.0303 C   0  0  0  0  0  0  0  0  0  0  0  0
    0.7526   -0.9203    0.7197 C   0  0  0  0  0  0  0  0  0  0  0  0
    2.1048   -0.5039    0.4062 C   0  0  0  0  0  0  0  0  0  0  0  0
    1.0611    0.2119   -0.2901 C   0  0  0  0  0  0  0  0  0  0  0  0
   -0.1803    2.8604   -1.0296 H   0  0  0  0  0  0  0  0  0  0  0  0
    0.5513    1.5566    1.2372 H   0  0  0  0  0  0  0  0  0  0  0  0
   -1.6384    1.6348   -0.7373 H   0  0  0  0  0  0  0  0  0  0  0  0
   -1.6985    1.6229    1.0310 H   0  0  0  0  0  0  0  0  0  0  0  0
   -2.7900   -0.2996   -0.0569 H   0  0  0  0  0  0  0  0  0  0  0  0
   -1.6461   -0.7420    1.2173 H   0  0  0  0  0  0  0  0  0  0  0  0
    0.5642   -2.3873   -0.7971 H   0  0  0  0  0  0  0  0  0  0  0  0
   -0.5196   -2.6827    0.6031 H   0  0  0  0  0  0  0  0  0  0  0  0
    0.3563   -0.6664    1.7071 H   0  0  0  0  0  0  0  0  0  0  0  0
    2.6761    0.0292    1.1828 H   0  0  0  0  0  0  0  0  0  0  0  0
    2.7345   -1.2027   -0.1763 H   0  0  0  0  0  0  0  0  0  0  0  0
    0.9213   -0.0225   -1.3787 H   0  0  0  0  0  0  0  0  0  0  0  0
  1  2  1  0
  2  3  1  0
  3  4  1  0
  4  5  1  0
  5  6  1  0
  6  7  1  0
  7  8  1  0
  8  9  1  0
  9  2  1  0
  9  7  1  0
  1 10  1  0
  2 11  1  0
  3 12  1  0
  3 13  1  0
  4 14  1  0
  4 15  1  0
  6 16  1  0
  6 17  1  0
  7 18  1  0
  8 19  1  0
  8 20  1  0
  9 21  1  0
M  END
