
     RDKit          3D

 18 19  0  0  0  0  0  0  0  0999 V2000
    2.1633   -1.2877    0.1408 O   0  0  0  0  0  0  0  0  0  0  0  0
    1.2137   -0.4388   -0.3884 C   0  0  0  0  0  0  0  0  0  0  0  0
    1.2684    0.9310    0.1786 C   0  0  0  0  0  0  0  0  0  0  0  0
    0.1443    1.5512    0.4502 C   0  0  0  0  0  0  0  0  0  0  0  0
   -1.1223    0.8293    0.2093 C   0  0  0  0  0  0  0  0  0  0  0  0
   -0.9556   -0.5273    0.9036 C   0  0  0  0  0  0  0  0  0  0  0  0
   -0.1805   -0.9601   -0.3256 C   0  0  0  0  0  0  0  0  0  0  0  0
   -1.0500    0.0356   -1.0973 C   0  0  0  0  0  0  0  0  0  0  0  0
    1.9045   -1.7604    0.9448 H   0  0  0  0  0  0  0  0  0  0  0  0
    1.4710   -0.3251   -1.4831 H   0  0  0  0  0  0  0  0  0  0  0  0
    2.2262    1.3830    0.3535 H   0  0  0  0  0  0  0  0  0  0  0  0
    0.1393    2.5443    0.8326 H   0  0  0  0  0  0  0  0  0  0  0  0
   -2.0532    1.3463    0.4005 H   0  0  0  0  0  0  0  0  0  0  0  0
   -1.9076   -1.0663    0.9640 H   0  0  0  0  0  0  0  0  0  0  0  0
   -0.3727   -0.4285    1.8261 H   0  0  0  0  0  0  0  0  0  0  0  0
   -0.3362   -2.0073   -0.6285 H   0  0  0  0  0  0  0  0  0  0  0  0
   -0.5312    0.5559   -1.9132 H   0  0  0  0  0  0  0  0  0  0  0  0
   -2.0213   -0.3751   -1.3677 H   0  0  0  0  0  0  0  0  0  0  0  0
  1  2  1  0
  2  3  1  0
  3  4  2  0
  4  5  1  0
  5  6  1  0
  6  7  1  0
  7  8  1  0
  7  2  1  0
  8  5  1  0
  1  9  1  0
  2 10  1  0
  3 11  1  0
  4 12  1  0
  5 13  1  0
  6 14  1  0
  6 15  1  0
  7 16  1  0
  8 17  1  0
  8 18  1  0
M  END
