
     RDKit          3D

 19 20  0  0  0  0  0  0  0  0999 V2000
   -1.4791    0.2096    1.6172 O   0  0  0  0  0  0  0  0  0  0  0  0
   -1.6447   -0.1095    0.2572 C   0  0  0  0  0  0  0  0  0  0  0  0
   -0.7267    0.5636   -0.7476 C   0  0  0  0  0  0  0  0  0  0  0  0
    0.1936    1.5394   -0.1629 C   0  0  0  0  0  0  0  0  0  0  0  0
    1.3915    1.2338    0.2866 C   0  0  0  0  0  0  0  0  0  0  0  0
    1.8392   -0.1649    0.2006 C   0  0  0  0  0  0  0  0  0  0  0  0
    0.7375   -1.1617    0.3525 C   0  0  0  0  0  0  0  0  0  0  0  0
   -0.4953   -0.8426   -0.4298 C   0  0  0  0  0  0  0  0  0  0  0  0
   -0.9365   -1.8003   -1.3415 O   0  0  0  0  0  0  0  0  0  0  0  0
   -1.8105    1.1456    1.7475 H   0  0  0  0  0  0  0  0  0  0  0  0
   -2.6713   -0.3136   -0.0417 H   0  0  0  0  0  0  0  0  0  0  0  0
   -1.1038    0.8039   -1.7499 H   0  0  0  0  0  0  0  0  0  0  0  0
   -0.1258    2.5741   -0.0942 H   0  0  0  0  0  0  0  0  0  0  0  0
    2.0262    2.0135    0.7110 H   0  0  0  0  0  0  0  0  0  0  0  0
    2.5514   -0.3289    1.0604 H   0  0  0  0  0  0  0  0  0  0  0  0
    2.4585   -0.3680   -0.7094 H   0  0  0  0  0  0  0  0  0  0  0  0
    0.4721   -1.3003    1.4413 H   0  0  0  0  0  0  0  0  0  0  0  0
    1.1298   -2.1513    0.0290 H   0  0  0  0  0  0  0  0  0  0  0  0
   -1.8061   -1.5423   -1.7320 H   0  0  0  0  0  0  0  0  0  0  0  0
  1  2  1  0
  2  3  1  0
  3  4  1  0
  4  5  2  0
  5  6  1  0
  6  7  1  0
  7  8  1  0
  8  9  1  0
  8  2  1  0
  8  3  1  0
  1 10  1  0
  2 11  1  0
  3 12  1  0
  4 13  1  0
  5 14  1  0
  6 15  1  0
  6 16  1  0
  7 17  1  0
  7 18  1  0
  9 19  1  0
M  END
