
     RDKit          3D

 19 21  0  0  0  0  0  0  0  0999 V2000
   -2.4566    1.2137    0.3214 O   0  0  0  0  0  0  0  0  0  0  0  0
   -1.7334    0.6500   -0.7335 C   0  0  0  0  0  0  0  0  0  0  0  0
   -1.5805   -0.8387   -0.6522 C   0  0  0  0  0  0  0  0  0  0  0  0
   -0.4483    0.0947   -0.4479 C   0  0  0  0  0  0  0  0  0  0  0  0
    0.5985   -0.0292   -1.3825 O   0  0  0  0  0  0  0  0  0  0  0  0
    1.6976   -0.1441   -0.5782 C   0  0  0  0  0  0  0  0  0  0  0  0
    1.5157    1.0175    0.4135 C   0  0  0  0  0  0  0  0  0  0  0  0
    0.3107    0.1873    0.8198 C   0  0  0  0  0  0  0  0  0  0  0  0
    1.2508   -1.0132    0.6094 C   0  0  0  0  0  0  0  0  0  0  0  0
   -2.3859    0.6142    1.1268 H   0  0  0  0  0  0  0  0  0  0  0  0
   -2.0085    1.1097   -1.7152 H   0  0  0  0  0  0  0  0  0  0  0  0
   -1.6409   -1.4626   -1.5729 H   0  0  0  0  0  0  0  0  0  0  0  0
   -1.9382   -1.3843    0.2510 H   0  0  0  0  0  0  0  0  0  0  0  0
    2.6685   -0.3074   -0.9643 H   0  0  0  0  0  0  0  0  0  0  0  0
    1.3063    1.9338   -0.1351 H   0  0  0  0  0  0  0  0  0  0  0  0
    2.2836    1.0395    1.1976 H   0  0  0  0  0  0  0  0  0  0  0  0
   -0.1303    0.3179    1.7611 H   0  0  0  0  0  0  0  0  0  0  0  0
    0.7018   -1.8977    0.2842 H   0  0  0  0  0  0  0  0  0  0  0  0
    1.9889   -1.1011    1.3970 H   0  0  0  0  0  0  0  0  0  0  0  0
  1  2  1  0
  2  3  1  0
  3  4  1  0
  4  5  1  0
  5  6  1  0
  6  7  1  0
  7  8  1  0
  8  9  1  0
  4  2  1  0
  9  6  1  0
  8  4  1  0
  1 10  1  0
  2 11  1  0
  3 12  1  0
  3 13  1  0
  6 14  1  0
  7 15  1  0
  7 16  1  0
  8 17  1  0
  9 18  1  0
  9 19  1  0
M  END
