
     RDKit          3D

 21 22  0  0  0  0  0  0  0  0999 V2000
   -1.5337    1.5657    0.6732 O   0  0  0  0  0  0  0  0  0  0  0  0
   -1.1398    0.2203    0.8295 C   0  0  0  0  0  0  0  0  0  0  0  0
   -1.9443   -0.6807   -0.1170 C   0  0  0  0  0  0  0  0  0  0  0  0
   -0.8654   -0.3766   -1.1660 C   0  0  0  0  0  0  0  0  0  0  0  0
    0.0544   -0.0605   -0.0082 C   0  0  0  0  0  0  0  0  0  0  0  0
    1.0255    1.0546   -0.2295 C   0  0  0  0  0  0  0  0  0  0  0  0
    2.3271    0.3057   -0.4503 C   0  0  0  0  0  0  0  0  0  0  0  0
    2.0338   -1.0366   -0.4575 O   0  0  0  0  0  0  0  0  0  0  0  0
    0.9464   -1.1926    0.4328 C   0  0  0  0  0  0  0  0  0  0  0  0
   -2.5063    1.6691    0.6474 H   0  0  0  0  0  0  0  0  0  0  0  0
   -1.1250   -0.0999    1.8692 H   0  0  0  0  0  0  0  0  0  0  0  0
   -2.9266   -0.2860   -0.3716 H   0  0  0  0  0  0  0  0  0  0  0  0
   -1.9530   -1.7405    0.1888 H   0  0  0  0  0  0  0  0  0  0  0  0
   -1.1178    0.5602   -1.7140 H   0  0  0  0  0  0  0  0  0  0  0  0
   -0.5834   -1.2216   -1.7942 H   0  0  0  0  0  0  0  0  0  0  0  0
    0.7070    1.6425   -1.0869 H   0  0  0  0  0  0  0  0  0  0  0  0
    1.0571    1.7089    0.6568 H   0  0  0  0  0  0  0  0  0  0  0  0
    2.7582    0.6552   -1.4190 H   0  0  0  0  0  0  0  0  0  0  0  0
    2.9956    0.5279    0.3874 H   0  0  0  0  0  0  0  0  0  0  0  0
    0.4866   -2.1737    0.3442 H   0  0  0  0  0  0  0  0  0  0  0  0
    1.3036   -1.0414    1.4520 H   0  0  0  0  0  0  0  0  0  0  0  0
  1  2  1  0
  2  3  1  0
  3  4  1  0
  4  5  1  0
  5  6  1  0
  6  7  1  0
  7  8  1  0
  8  9  1  0
  5  2  1  0
  9  5  1  0
  1 10  1  0
  2 11  1  0
  3 12  1  0
  3 13  1  0
  4 14  1  0
  4 15  1  0
  6 16  1  0
  6 17  1  0
  7 18  1  0
  7 19  1  0
  9 20  1  0
  9 21  1  0
M  END
