
     RDKit          3D

 19 21  0  0  0  0  0  0  0  0999 V2000
    2.3610    1.0927   -0.3667 O   0  0  0  0  0  0  0  0  0  0  0  0
    1.3464    0.4786    0.3726 C   0  0  0  0  0  0  0  0  0  0  0  0
    1.2849   -1.0257    0.0672 C   0  0  0  0  0  0  0  0  0  0  0  0
    0.0769   -1.3641   -0.8129 C   0  0  0  0  0  0  0  0  0  0  0  0
   -1.0552   -0.7183   -0.6009 C   0  0  0  0  0  0  0  0  0  0  0  0
   -2.2697    0.0289   -0.3141 C   0  0  0  0  0  0  0  0  0  0  0  0
   -1.3650    1.0994    0.4271 C   0  0  0  0  0  0  0  0  0  0  0  0
   -0.7269   -0.0358    0.7733 C   0  0  0  0  0  0  0  0  0  0  0  0
    0.0614    1.1294    0.1597 C   0  0  0  0  0  0  0  0  0  0  0  0
    3.2338    1.0899    0.0978 H   0  0  0  0  0  0  0  0  0  0  0  0
    1.7231    0.5565    1.4484 H   0  0  0  0  0  0  0  0  0  0  0  0
    2.1762   -1.3703   -0.4671 H   0  0  0  0  0  0  0  0  0  0  0  0
    1.1093   -1.6035    0.9961 H   0  0  0  0  0  0  0  0  0  0  0  0
    0.1360   -2.1124   -1.5974 H   0  0  0  0  0  0  0  0  0  0  0  0
   -2.7943    0.5010   -1.1659 H   0  0  0  0  0  0  0  0  0  0  0  0
   -2.9439   -0.4889    0.3934 H   0  0  0  0  0  0  0  0  0  0  0  0
   -1.8789    1.9263    0.9026 H   0  0  0  0  0  0  0  0  0  0  0  0
   -0.5334   -0.5587    1.6256 H   0  0  0  0  0  0  0  0  0  0  0  0
    0.0584    1.3753   -0.9395 H   0  0  0  0  0  0  0  0  0  0  0  0
  1  2  1  0
  2  3  1  0
  3  4  1  0
  4  5  2  0
  5  6  1  0
  6  7  1  0
  7  8  1  0
  8  9  1  0
  9  2  1  0
  8  5  1  0
  9  7  1  0
  1 10  1  0
  2 11  1  0
  3 12  1  0
  3 13  1  0
  4 14  1  0
  6 15  1  0
  6 16  1  0
  7 17  1  0
  8 18  1  0
  9 19  1  0
M  END
