
     RDKit          3D

 19 22  0  0  0  0  0  0  0  0999 V2000
    1.9902    0.3955   -1.6218 O   0  0  0  0  0  0  0  0  0  0  0  0
    1.3882    0.3149   -0.3894 C   0  0  0  0  0  0  0  0  0  0  0  0
    0.7838   -1.0148   -0.0753 C   0  0  0  0  0  0  0  0  0  0  0  0
   -0.6392   -1.3014   -0.1497 C   0  0  0  0  0  0  0  0  0  0  0  0
   -1.6754   -0.2970   -0.5453 C   0  0  0  0  0  0  0  0  0  0  0  0
   -1.1060    1.0194   -0.1532 C   0  0  0  0  0  0  0  0  0  0  0  0
    0.3241    1.3177   -0.1356 C   0  0  0  0  0  0  0  0  0  0  0  0
   -0.3745    0.7347    1.0974 C   0  0  0  0  0  0  0  0  0  0  0  0
   -0.0665   -0.7289    1.1071 C   0  0  0  0  0  0  0  0  0  0  0  0
    2.8525   -0.1272   -1.5519 H   0  0  0  0  0  0  0  0  0  0  0  0
    2.2018    0.4885    0.3757 H   0  0  0  0  0  0  0  0  0  0  0  0
    1.4824   -1.8634   -0.1121 H   0  0  0  0  0  0  0  0  0  0  0  0
   -0.9556   -2.3515   -0.1634 H   0  0  0  0  0  0  0  0  0  0  0  0
   -2.5686   -0.4780    0.1226 H   0  0  0  0  0  0  0  0  0  0  0  0
   -2.0342   -0.3770   -1.5684 H   0  0  0  0  0  0  0  0  0  0  0  0
   -1.8075    1.8715   -0.2333 H   0  0  0  0  0  0  0  0  0  0  0  0
    0.6190    2.3733   -0.0300 H   0  0  0  0  0  0  0  0  0  0  0  0
   -0.4454    1.3257    2.0022 H   0  0  0  0  0  0  0  0  0  0  0  0
    0.0310   -1.3019    2.0245 H   0  0  0  0  0  0  0  0  0  0  0  0
  1  2  1  0
  2  3  1  0
  3  4  1  0
  4  5  1  0
  5  6  1  0
  6  7  1  0
  7  8  1  0
  8  9  1  0
  7  2  1  0
  9  3  1  0
  9  4  1  0
  8  6  1  0
  1 10  1  0
  2 11  1  0
  3 12  1  0
  4 13  1  0
  5 14  1  0
  5 15  1  0
  6 16  1  0
  7 17  1  0
  8 18  1  0
  9 19  1  0
M  END
