
     RDKit          3D

 21 23  0  0  0  0  0  0  0  0999 V2000
   -2.9145    0.8360   -0.8690 O   0  0  0  0  0  0  0  0  0  0  0  0
   -1.7349    0.7443   -0.2037 C   0  0  0  0  0  0  0  0  0  0  0  0
   -1.9403   -0.0000    1.1386 C   0  0  0  0  0  0  0  0  0  0  0  0
   -0.4201   -0.1113    0.9593 C   0  0  0  0  0  0  0  0  0  0  0  0
   -0.9600   -0.5527   -0.4692 C   0  0  0  0  0  0  0  0  0  0  0  0
    0.2919   -0.9684    0.0887 C   0  0  0  0  0  0  0  0  0  0  0  0
    1.5351   -0.5885   -0.6797 C   0  0  0  0  0  0  0  0  0  0  0  0
    2.7339   -0.1434    0.1380 C   0  0  0  0  0  0  0  0  0  0  0  0
    1.9506    0.8329   -0.6760 C   0  0  0  0  0  0  0  0  0  0  0  0
   -3.3898   -0.0380   -0.7857 H   0  0  0  0  0  0  0  0  0  0  0  0
   -1.1255    1.6299   -0.0639 H   0  0  0  0  0  0  0  0  0  0  0  0
   -2.4812   -0.9481    1.0357 H   0  0  0  0  0  0  0  0  0  0  0  0
   -2.2207    0.6247    1.9742 H   0  0  0  0  0  0  0  0  0  0  0  0
   -0.0397    0.9329    1.0188 H   0  0  0  0  0  0  0  0  0  0  0  0
   -1.7499   -1.3708   -0.4233 H   0  0  0  0  0  0  0  0  0  0  0  0
    0.4244   -2.0365    0.4692 H   0  0  0  0  0  0  0  0  0  0  0  0
    1.7721   -1.2101   -1.5786 H   0  0  0  0  0  0  0  0  0  0  0  0
    2.5966   -0.1318    1.2235 H   0  0  0  0  0  0  0  0  0  0  0  0
    3.7456   -0.3861   -0.1935 H   0  0  0  0  0  0  0  0  0  0  0  0
    1.4359    1.6208   -0.1025 H   0  0  0  0  0  0  0  0  0  0  0  0
    2.4905    1.2644   -1.5604 H   0  0  0  0  0  0  0  0  0  0  0  0
  1  2  1  0
  2  3  1  0
  3  4  1  0
  4  5  1  0
  5  6  1  0
  6  7  1  0
  7  8  1  0
  8  9  1  0
  5  2  1  0
  9  7  1  0
  6  4  1  0
  1 10  1  0
  2 11  1  0
  3 12  1  0
  3 13  1  0
  4 14  1  0
  5 15  1  0
  6 16  1  0
  7 17  1  0
  8 18  1  0
  8 19  1  0
  9 20  1  0
  9 21  1  0
M  END
