
     RDKit          3D

 21 22  0  0  0  0  0  0  0  0999 V2000
   -0.9341   -0.8760    1.8810 O   0  0  0  0  0  0  0  0  0  0  0  0
   -0.8904   -0.9958    0.4724 C   0  0  0  0  0  0  0  0  0  0  0  0
   -1.7452    0.0457   -0.1232 C   0  0  0  0  0  0  0  0  0  0  0  0
   -1.1104    1.3642   -0.2937 C   0  0  0  0  0  0  0  0  0  0  0  0
    0.1809    1.7231   -0.3600 C   0  0  0  0  0  0  0  0  0  0  0  0
    1.3206    0.7989   -0.5422 C   0  0  0  0  0  0  0  0  0  0  0  0
    1.4174   -0.0364    0.7325 C   0  0  0  0  0  0  0  0  0  0  0  0
    0.5201   -1.0355    0.0620 C   0  0  0  0  0  0  0  0  0  0  0  0
    0.8445   -0.4642   -1.2687 C   0  0  0  0  0  0  0  0  0  0  0  0
   -0.1609   -1.3947    2.2567 H   0  0  0  0  0  0  0  0  0  0  0  0
   -1.3653   -1.9967    0.2683 H   0  0  0  0  0  0  0  0  0  0  0  0
   -2.2281   -0.2797   -1.0898 H   0  0  0  0  0  0  0  0  0  0  0  0
   -2.6204    0.2094    0.5724 H   0  0  0  0  0  0  0  0  0  0  0  0
   -1.7965    2.2040   -0.3829 H   0  0  0  0  0  0  0  0  0  0  0  0
    0.3990    2.7834   -0.2716 H   0  0  0  0  0  0  0  0  0  0  0  0
    2.2559    1.2185   -0.9004 H   0  0  0  0  0  0  0  0  0  0  0  0
    0.9148    0.4388    1.5998 H   0  0  0  0  0  0  0  0  0  0  0  0
    2.4066   -0.4523    0.9414 H   0  0  0  0  0  0  0  0  0  0  0  0
    0.9288   -2.0854    0.1355 H   0  0  0  0  0  0  0  0  0  0  0  0
    1.7001   -0.9314   -1.7914 H   0  0  0  0  0  0  0  0  0  0  0  0
   -0.0375   -0.2377   -1.8980 H   0  0  0  0  0  0  0  0  0  0  0  0
  1  2  1  0
  2  3  1  0
  3  4  1  0
  4  5  2  0
  5  6  1  0
  6  7  1  0
  7  8  1  0
  8  9  1  0
  8  2  1  0
  9  6  1  0
  1 10  1  0
  2 11  1  0
  3 12  1  0
  3 13  1  0
  4 14  1  0
  5 15  1  0
  6 16  1  0
  7 17  1  0
  7 18  1  0
  8 19  1  0
  9 20  1  0
  9 21  1  0
M  END
