
     RDKit          3D

 19 20  0  0  0  0  0  0  0  0999 V2000
    2.3208   -0.8005    0.6521 O   0  0  0  0  0  0  0  0  0  0  0  0
    1.5154   -0.1617   -0.2845 C   0  0  0  0  0  0  0  0  0  0  0  0
    0.9581    1.1308    0.2427 C   0  0  0  0  0  0  0  0  0  0  0  0
   -0.4346    0.8732    0.7207 C   0  0  0  0  0  0  0  0  0  0  0  0
   -1.4109    1.5020   -0.0630 O   0  0  0  0  0  0  0  0  0  0  0  0
   -1.9080    0.3102   -0.5399 C   0  0  0  0  0  0  0  0  0  0  0  0
   -0.8331   -0.4750    0.2090 C   0  0  0  0  0  0  0  0  0  0  0  0
   -1.3537   -1.3599    1.1183 O   0  0  0  0  0  0  0  0  0  0  0  0
    0.2922   -0.9586   -0.6480 C   0  0  0  0  0  0  0  0  0  0  0  0
    3.2738   -0.7943    0.3389 H   0  0  0  0  0  0  0  0  0  0  0  0
    2.1205    0.0310   -1.2145 H   0  0  0  0  0  0  0  0  0  0  0  0
    1.6451    1.4794    1.0462 H   0  0  0  0  0  0  0  0  0  0  0  0
    0.9253    1.8508   -0.6148 H   0  0  0  0  0  0  0  0  0  0  0  0
   -0.5749    0.9824    1.8154 H   0  0  0  0  0  0  0  0  0  0  0  0
   -1.8132    0.1126   -1.6125 H   0  0  0  0  0  0  0  0  0  0  0  0
   -2.9353    0.0709   -0.1977 H   0  0  0  0  0  0  0  0  0  0  0  0
   -2.2911   -1.0629    1.3247 H   0  0  0  0  0  0  0  0  0  0  0  0
    0.4670   -2.0449   -0.5801 H   0  0  0  0  0  0  0  0  0  0  0  0
    0.0367   -0.6856   -1.7129 H   0  0  0  0  0  0  0  0  0  0  0  0
  1  2  1  0
  2  3  1  0
  3  4  1  0
  4  5  1  0
  5  6  1  0
  6  7  1  0
  7  8  1  0
  7  9  1  0
  9  2  1  0
  7  4  1  0
  1 10  1  0
  2 11  1  0
  3 12  1  0
  3 13  1  0
  4 14  1  0
  6 15  1  0
  6 16  1  0
  8 17  1  0
  9 18  1  0
  9 19  1  0
M  END
