
     RDKit          3D

 17 18  0  0  0  0  0  0  0  0999 V2000
    1.5519    1.6186   -0.0249 O   0  0  0  0  0  0  0  0  0  0  0  0
    1.2077    0.2878   -0.2528 C   0  0  0  0  0  0  0  0  0  0  0  0
    0.5887   -0.4274    0.9198 C   0  0  0  0  0  0  0  0  0  0  0  0
    1.0715   -1.7005    1.1626 O   0  0  0  0  0  0  0  0  0  0  0  0
   -0.7349   -0.5133    0.1796 C   0  0  0  0  0  0  0  0  0  0  0  0
   -1.2967   -1.7266   -0.0842 O   0  0  0  0  0  0  0  0  0  0  0  0
   -1.3074    0.7758   -0.2336 C   0  0  0  0  0  0  0  0  0  0  0  0
   -2.4608    0.8411   -1.0055 O   0  0  0  0  0  0  0  0  0  0  0  0
   -0.1176    0.2118   -0.9527 C   0  0  0  0  0  0  0  0  0  0  0  0
    2.5031    1.6847    0.2349 H   0  0  0  0  0  0  0  0  0  0  0  0
    1.9671   -0.2988   -0.8243 H   0  0  0  0  0  0  0  0  0  0  0  0
    0.4407    0.1862    1.8335 H   0  0  0  0  0  0  0  0  0  0  0  0
    1.9217   -1.7143    1.6637 H   0  0  0  0  0  0  0  0  0  0  0  0
   -1.7810   -2.1570    0.6353 H   0  0  0  0  0  0  0  0  0  0  0  0
   -1.0842    1.6508    0.4303 H   0  0  0  0  0  0  0  0  0  0  0  0
   -2.2568    1.5138   -1.7302 H   0  0  0  0  0  0  0  0  0  0  0  0
   -0.2132   -0.2328   -1.9515 H   0  0  0  0  0  0  0  0  0  0  0  0
  1  2  1  0
  2  3  1  0
  3  4  1  0
  3  5  1  0
  5  6  1  0
  5  7  1  0
  7  8  1  0
  7  9  1  0
  9  2  1  0
  9  5  1  0
  1 10  1  0
  2 11  1  0
  3 12  1  0
  4 13  1  0
  6 14  1  0
  7 15  1  0
  8 16  1  0
  9 17  1  0
M  END
