
     RDKit          3D

 17 18  0  0  0  0  0  0  0  0999 V2000
   -1.8405   -0.9966   -1.1177 O   0  0  0  0  0  0  0  0  0  0  0  0
   -1.3305   -0.4811    0.0725 C   0  0  0  0  0  0  0  0  0  0  0  0
   -1.6524    0.9815    0.2433 C   0  0  0  0  0  0  0  0  0  0  0  0
   -0.5044    1.5193    0.8202 O   0  0  0  0  0  0  0  0  0  0  0  0
    0.4992    0.9775   -0.0147 C   0  0  0  0  0  0  0  0  0  0  0  0
    1.7441    0.9500    0.5630 O   0  0  0  0  0  0  0  0  0  0  0  0
    2.3805   -0.0920   -0.1605 C   0  0  0  0  0  0  0  0  0  0  0  0
    1.3034   -1.1347   -0.1249 C   0  0  0  0  0  0  0  0  0  0  0  0
    0.1428   -0.4952   -0.0263 C   0  0  0  0  0  0  0  0  0  0  0  0
   -2.4043   -1.7741   -0.8668 H   0  0  0  0  0  0  0  0  0  0  0  0
   -1.7182   -1.0069    0.9620 H   0  0  0  0  0  0  0  0  0  0  0  0
   -2.5517    1.1208    0.8685 H   0  0  0  0  0  0  0  0  0  0  0  0
   -1.7494    1.4517   -0.7575 H   0  0  0  0  0  0  0  0  0  0  0  0
    0.4484    1.4071   -1.0132 H   0  0  0  0  0  0  0  0  0  0  0  0
    2.5955    0.2728   -1.1615 H   0  0  0  0  0  0  0  0  0  0  0  0
    3.2515   -0.4897    0.3943 H   0  0  0  0  0  0  0  0  0  0  0  0
    1.3861   -2.2105   -0.1671 H   0  0  0  0  0  0  0  0  0  0  0  0
  1  2  1  0
  2  3  1  0
  3  4  1  0
  4  5  1  0
  5  6  1  0
  6  7  1  0
  7  8  1  0
  8  9  2  0
  9  2  1  0
  9  5  1  0
  1 10  1  0
  2 11  1  0
  3 12  1  0
  3 13  1  0
  5 14  1  0
  7 15  1  0
  7 16  1  0
  8 17  1  0
M  END
