
     RDKit          3D

 19 21  0  0  0  0  0  0  0  0999 V2000
    0.5257    1.5607    1.1731 O   0  0  0  0  0  0  0  0  0  0  0  0
    0.2188    0.9586   -0.0358 C   0  0  0  0  0  0  0  0  0  0  0  0
   -0.7432   -0.1720    0.0026 C   0  0  0  0  0  0  0  0  0  0  0  0
   -2.0722   -0.1766   -0.5666 C   0  0  0  0  0  0  0  0  0  0  0  0
   -1.8136   -0.3533    0.9495 C   0  0  0  0  0  0  0  0  0  0  0  0
    0.3343   -1.1551   -0.3033 C   0  0  0  0  0  0  0  0  0  0  0  0
    1.2904   -0.0301   -0.4491 C   0  0  0  0  0  0  0  0  0  0  0  0
    2.6280    0.0596   -0.2046 C   0  0  0  0  0  0  0  0  0  0  0  0
    2.0408    0.1766   -1.5747 O   0  0  0  0  0  0  0  0  0  0  0  0
   -0.2769    1.9944    1.5573 H   0  0  0  0  0  0  0  0  0  0  0  0
   -0.0476    1.6850   -0.8274 H   0  0  0  0  0  0  0  0  0  0  0  0
   -2.5412    0.8151   -0.8311 H   0  0  0  0  0  0  0  0  0  0  0  0
   -2.5366   -1.0139   -1.0964 H   0  0  0  0  0  0  0  0  0  0  0  0
   -2.1260    0.4593    1.6081 H   0  0  0  0  0  0  0  0  0  0  0  0
   -2.0214   -1.3882    1.3184 H   0  0  0  0  0  0  0  0  0  0  0  0
    0.1778   -1.7948   -1.1918 H   0  0  0  0  0  0  0  0  0  0  0  0
    0.5098   -1.8304    0.5793 H   0  0  0  0  0  0  0  0  0  0  0  0
    3.1436    1.0166    0.0109 H   0  0  0  0  0  0  0  0  0  0  0  0
    3.3094   -0.8115   -0.1183 H   0  0  0  0  0  0  0  0  0  0  0  0
  1  2  1  0
  2  3  1  0
  3  4  1  0
  4  5  1  0
  3  6  1  0
  6  7  1  0
  7  8  1  0
  8  9  1  0
  7  2  1  0
  5  3  1  0
  9  7  1  0
  1 10  1  0
  2 11  1  0
  4 12  1  0
  4 13  1  0
  5 14  1  0
  5 15  1  0
  6 16  1  0
  6 17  1  0
  8 18  1  0
  8 19  1  0
M  END
