
     RDKit          3D

 15 16  0  0  0  0  0  0  0  0999 V2000
   -1.8971   -1.4276    0.7683 O   0  0  0  0  0  0  0  0  0  0  0  0
   -1.2830   -0.7605   -0.2887 C   0  0  0  0  0  0  0  0  0  0  0  0
   -1.7101    0.6427   -0.3014 C   0  0  0  0  0  0  0  0  0  0  0  0
   -0.6633    1.4418   -0.1832 C   0  0  0  0  0  0  0  0  0  0  0  0
    0.5531    0.6246   -0.0817 C   0  0  0  0  0  0  0  0  0  0  0  0
    1.9232    0.6416    0.0519 C   0  0  0  0  0  0  0  0  0  0  0  0
    2.3363   -0.6728    0.0651 C   0  0  0  0  0  0  0  0  0  0  0  0
    1.2781   -1.4369   -0.0535 O   0  0  0  0  0  0  0  0  0  0  0  0
    0.1796   -0.7032   -0.1453 C   0  0  0  0  0  0  0  0  0  0  0  0
   -1.6969   -0.9846    1.6446 H   0  0  0  0  0  0  0  0  0  0  0  0
   -1.5532   -1.3210   -1.2103 H   0  0  0  0  0  0  0  0  0  0  0  0
   -2.7311    0.9789   -0.3938 H   0  0  0  0  0  0  0  0  0  0  0  0
   -0.6641    2.5201   -0.1611 H   0  0  0  0  0  0  0  0  0  0  0  0
    2.5640    1.5047    0.1319 H   0  0  0  0  0  0  0  0  0  0  0  0
    3.3645   -1.0476    0.1574 H   0  0  0  0  0  0  0  0  0  0  0  0
  1  2  1  0
  2  3  1  0
  3  4  2  0
  4  5  1  0
  5  6  1  0
  6  7  2  0
  7  8  1  0
  8  9  1  0
  9  2  1  0
  9  5  2  0
  1 10  1  0
  2 11  1  0
  3 12  1  0
  4 13  1  0
  6 14  1  0
  7 15  1  0
M  END
