
     RDKit          3D

 20 21  0  0  0  0  0  0  0  0999 V2000
    2.0069   -1.6522   -0.4429 O   0  0  0  0  0  0  0  0  0  0  0  0
    0.9888   -0.6776   -0.5781 C   0  0  0  0  0  0  0  0  0  0  0  0
    1.6024    0.6878   -0.7869 C   0  0  0  0  0  0  0  0  0  0  0  0
    1.0583    1.0810    0.5692 C   0  0  0  0  0  0  0  0  0  0  0  0
    0.3663   -0.2563    0.7068 C   0  0  0  0  0  0  0  0  0  0  0  0
   -1.1288   -0.2011    0.7724 C   0  0  0  0  0  0  0  0  0  0  0  0
   -1.9266    0.6695   -0.1121 C   0  0  0  0  0  0  0  0  0  0  0  0
   -2.0050   -0.8417   -0.2253 C   0  0  0  0  0  0  0  0  0  0  0  0
    2.1348   -1.7777    0.5143 H   0  0  0  0  0  0  0  0  0  0  0  0
    0.3469   -0.9596   -1.4092 H   0  0  0  0  0  0  0  0  0  0  0  0
    1.1878    1.2888   -1.6017 H   0  0  0  0  0  0  0  0  0  0  0  0
    2.7122    0.6844   -0.8606 H   0  0  0  0  0  0  0  0  0  0  0  0
    1.8988    1.2549    1.2759 H   0  0  0  0  0  0  0  0  0  0  0  0
    0.4069    1.9578    0.5466 H   0  0  0  0  0  0  0  0  0  0  0  0
    0.8201   -0.8081    1.5577 H   0  0  0  0  0  0  0  0  0  0  0  0
   -1.5174   -0.2588    1.8333 H   0  0  0  0  0  0  0  0  0  0  0  0
   -2.8720    1.1268    0.2536 H   0  0  0  0  0  0  0  0  0  0  0  0
   -1.4727    1.2507   -0.9348 H   0  0  0  0  0  0  0  0  0  0  0  0
   -2.9443   -1.3536    0.1173 H   0  0  0  0  0  0  0  0  0  0  0  0
   -1.6635   -1.2149   -1.1956 H   0  0  0  0  0  0  0  0  0  0  0  0
  1  2  1  0
  2  3  1  0
  3  4  1  0
  4  5  1  0
  5  6  1  0
  6  7  1  0
  7  8  1  0
  5  2  1  0
  8  6  1  0
  1  9  1  0
  2 10  1  0
  3 11  1  0
  3 12  1  0
  4 13  1  0
  4 14  1  0
  5 15  1  0
  6 16  1  0
  7 17  1  0
  7 18  1  0
  8 19  1  0
  8 20  1  0
M  END
