
     RDKit          3D

 21 22  0  0  0  0  0  0  0  0999 V2000
    0.8098   -1.9048    0.5822 O   0  0  0  0  0  0  0  0  0  0  0  0
    1.1840   -0.9692   -0.3728 C   0  0  0  0  0  0  0  0  0  0  0  0
    2.4335   -0.2688   -0.0450 C   0  0  0  0  0  0  0  0  0  0  0  0
    2.1876    0.9388    0.4437 C   0  0  0  0  0  0  0  0  0  0  0  0
    0.6999    1.1910    0.4996 C   0  0  0  0  0  0  0  0  0  0  0  0
    0.1704    0.1246   -0.4435 C   0  0  0  0  0  0  0  0  0  0  0  0
   -1.1837   -0.3175    0.0991 C   0  0  0  0  0  0  0  0  0  0  0  0
   -2.2894    0.6673    0.0917 C   0  0  0  0  0  0  0  0  0  0  0  0
   -2.3101   -0.5932   -0.8107 C   0  0  0  0  0  0  0  0  0  0  0  0
    1.3152   -1.7675    1.4197 H   0  0  0  0  0  0  0  0  0  0  0  0
    1.2794   -1.4339   -1.3717 H   0  0  0  0  0  0  0  0  0  0  0  0
    3.4617   -0.6409   -0.1652 H   0  0  0  0  0  0  0  0  0  0  0  0
    2.9333    1.6648    0.7661 H   0  0  0  0  0  0  0  0  0  0  0  0
    0.4409    2.1912    0.1460 H   0  0  0  0  0  0  0  0  0  0  0  0
    0.3637    1.0059    1.5401 H   0  0  0  0  0  0  0  0  0  0  0  0
    0.0699    0.4863   -1.4723 H   0  0  0  0  0  0  0  0  0  0  0  0
   -1.0793   -0.9512    1.0140 H   0  0  0  0  0  0  0  0  0  0  0  0
   -3.0528    0.7062    0.8948 H   0  0  0  0  0  0  0  0  0  0  0  0
   -2.1746    1.6466   -0.4351 H   0  0  0  0  0  0  0  0  0  0  0  0
   -2.2436   -0.3671   -1.8948 H   0  0  0  0  0  0  0  0  0  0  0  0
   -3.0159   -1.4087   -0.4859 H   0  0  0  0  0  0  0  0  0  0  0  0
  1  2  1  0
  2  3  1  0
  3  4  2  0
  4  5  1  0
  5  6  1  0
  6  7  1  0
  7  8  1  0
  8  9  1  0
  6  2  1  0
  9  7  1  0
  1 10  1  0
  2 11  1  0
  3 12  1  0
  4 13  1  0
  5 14  1  0
  5 15  1  0
  6 16  1  0
  7 17  1  0
  8 18  1  0
  8 19  1  0
  9 20  1  0
  9 21  1  0
M  END
