
     RDKit          3D

 17 19  0  0  0  0  0  0  0  0999 V2000
   -0.9123    1.2455    1.4392 O   0  0  0  0  0  0  0  0  0  0  0  0
   -0.8765    0.6653    0.2028 C   0  0  0  0  0  0  0  0  0  0  0  0
   -1.8675   -0.4726    0.0233 C   0  0  0  0  0  0  0  0  0  0  0  0
   -1.7878   -1.2898   -1.0693 O   0  0  0  0  0  0  0  0  0  0  0  0
   -0.7870   -1.4074   -0.1285 C   0  0  0  0  0  0  0  0  0  0  0  0
    0.2046   -0.3349   -0.0660 C   0  0  0  0  0  0  0  0  0  0  0  0
    1.3494   -0.3933    0.8442 C   0  0  0  0  0  0  0  0  0  0  0  0
    1.8545    0.6100   -0.2039 C   0  0  0  0  0  0  0  0  0  0  0  0
    1.0341   -0.0910   -1.1214 O   0  0  0  0  0  0  0  0  0  0  0  0
   -1.3447    2.1398    1.3458 H   0  0  0  0  0  0  0  0  0  0  0  0
   -0.9485    1.3793   -0.6434 H   0  0  0  0  0  0  0  0  0  0  0  0
   -2.7428   -0.5481    0.6529 H   0  0  0  0  0  0  0  0  0  0  0  0
   -0.6920   -2.3812    0.3630 H   0  0  0  0  0  0  0  0  0  0  0  0
    1.2564    0.0199    1.8513 H   0  0  0  0  0  0  0  0  0  0  0  0
    1.9436   -1.3068    0.7585 H   0  0  0  0  0  0  0  0  0  0  0  0
    1.3976    1.5977   -0.0147 H   0  0  0  0  0  0  0  0  0  0  0  0
    2.9191    0.5677   -0.4072 H   0  0  0  0  0  0  0  0  0  0  0  0
  1  2  1  0
  2  3  1  0
  3  4  1  0
  4  5  1  0
  5  6  1  0
  6  7  1  0
  7  8  1  0
  8  9  1  0
  6  2  1  0
  5  3  1  0
  9  6  1  0
  1 10  1  0
  2 11  1  0
  3 12  1  0
  5 13  1  0
  7 14  1  0
  7 15  1  0
  8 16  1  0
  8 17  1  0
M  END
