
     RDKit          3D

 21 22  0  0  0  0  0  0  0  0999 V2000
   -2.6599    0.3192    0.5247 O   0  0  0  0  0  0  0  0  0  0  0  0
   -1.4893    0.0272   -0.1311 C   0  0  0  0  0  0  0  0  0  0  0  0
   -0.4842    1.1059    0.2021 C   0  0  0  0  0  0  0  0  0  0  0  0
    0.6719    1.1467   -0.7726 C   0  0  0  0  0  0  0  0  0  0  0  0
    1.8817    0.3958   -0.1952 C   0  0  0  0  0  0  0  0  0  0  0  0
    1.3374   -0.7389    0.6011 C   0  0  0  0  0  0  0  0  0  0  0  0
    1.4570   -2.0465    0.2525 O   0  0  0  0  0  0  0  0  0  0  0  0
    0.3769   -1.4892   -0.3373 C   0  0  0  0  0  0  0  0  0  0  0  0
   -0.9661   -1.3580    0.2775 C   0  0  0  0  0  0  0  0  0  0  0  0
   -2.4539    0.8499    1.3444 H   0  0  0  0  0  0  0  0  0  0  0  0
   -1.5735   -0.0064   -1.2318 H   0  0  0  0  0  0  0  0  0  0  0  0
   -0.1525    1.0740    1.2607 H   0  0  0  0  0  0  0  0  0  0  0  0
   -1.0297    2.0783    0.0693 H   0  0  0  0  0  0  0  0  0  0  0  0
    0.3561    0.7429   -1.7348 H   0  0  0  0  0  0  0  0  0  0  0  0
    1.0133    2.1992   -0.9505 H   0  0  0  0  0  0  0  0  0  0  0  0
    2.4585    1.0655    0.4482 H   0  0  0  0  0  0  0  0  0  0  0  0
    2.4745    0.0607   -1.0585 H   0  0  0  0  0  0  0  0  0  0  0  0
    1.0183   -0.5527    1.6374 H   0  0  0  0  0  0  0  0  0  0  0  0
    0.4254   -1.2826   -1.4161 H   0  0  0  0  0  0  0  0  0  0  0  0
   -1.6822   -2.0957   -0.1561 H   0  0  0  0  0  0  0  0  0  0  0  0
   -0.9799   -1.4953    1.3660 H   0  0  0  0  0  0  0  0  0  0  0  0
  1  2  1  0
  2  3  1  0
  3  4  1  0
  4  5  1  0
  5  6  1  0
  6  7  1  0
  7  8  1  0
  8  9  1  0
  9  2  1  0
  8  6  1  0
  1 10  1  0
  2 11  1  0
  3 12  1  0
  3 13  1  0
  4 14  1  0
  4 15  1  0
  5 16  1  0
  5 17  1  0
  6 18  1  0
  8 19  1  0
  9 20  1  0
  9 21  1  0
M  END
