
     RDKit          3D

 21 21  0  0  0  0  0  0  0  0999 V2000
    3.1310   -0.2811   -0.1742 O   0  0  0  0  0  0  0  0  0  0  0  0
    1.8270   -0.1770    0.2368 C   0  0  0  0  0  0  0  0  0  0  0  0
    1.0632   -1.3009   -0.3764 C   0  0  0  0  0  0  0  0  0  0  0  0
   -0.1959   -1.7352   -0.3095 C   0  0  0  0  0  0  0  0  0  0  0  0
   -1.3814   -1.2292    0.4488 C   0  0  0  0  0  0  0  0  0  0  0  0
   -1.8304    0.0561   -0.1932 C   0  0  0  0  0  0  0  0  0  0  0  0
   -1.2826    1.2775    0.4610 C   0  0  0  0  0  0  0  0  0  0  0  0
    0.0339    1.7010   -0.0155 C   0  0  0  0  0  0  0  0  0  0  0  0
    1.2381    1.1498   -0.1067 C   0  0  0  0  0  0  0  0  0  0  0  0
    3.4139    0.4362   -0.7614 H   0  0  0  0  0  0  0  0  0  0  0  0
    1.7857   -0.2564    1.3497 H   0  0  0  0  0  0  0  0  0  0  0  0
    1.6443   -1.9375   -1.0434 H   0  0  0  0  0  0  0  0  0  0  0  0
   -0.3958   -2.6214   -0.9199 H   0  0  0  0  0  0  0  0  0  0  0  0
   -1.0832   -1.0304    1.5022 H   0  0  0  0  0  0  0  0  0  0  0  0
   -2.1626   -1.9959    0.3929 H   0  0  0  0  0  0  0  0  0  0  0  0
   -1.5989    0.0858   -1.2838 H   0  0  0  0  0  0  0  0  0  0  0  0
   -2.9407    0.0836   -0.1152 H   0  0  0  0  0  0  0  0  0  0  0  0
   -2.0212    2.1080    0.2572 H   0  0  0  0  0  0  0  0  0  0  0  0
   -1.3169    1.1578    1.5770 H   0  0  0  0  0  0  0  0  0  0  0  0
    0.0710    2.7151   -0.3970 H   0  0  0  0  0  0  0  0  0  0  0  0
    2.0015    1.7941   -0.5295 H   0  0  0  0  0  0  0  0  0  0  0  0
  1  2  1  0
  2  3  1  0
  3  4  2  3
  4  5  1  0
  5  6  1  0
  6  7  1  0
  7  8  1  0
  8  9  2  3
  9  2  1  0
  1 10  1  0
  2 11  1  0
  3 12  1  0
  4 13  1  0
  5 14  1  0
  5 15  1  0
  6 16  1  0
  6 17  1  0
  7 18  1  0
  7 19  1  0
  8 20  1  0
  9 21  1  0
M  END
