
     RDKit          3D

 19 20  0  0  0  0  0  0  0  0999 V2000
    2.6730    0.3203   -0.2929 O   0  0  0  0  0  0  0  0  0  0  0  0
    1.4566    0.4222    0.3127 C   0  0  0  0  0  0  0  0  0  0  0  0
    0.3718    1.1419   -0.4908 C   0  0  0  0  0  0  0  0  0  0  0  0
   -0.5339    0.0383   -0.0774 C   0  0  0  0  0  0  0  0  0  0  0  0
   -1.6579   -0.3396   -0.9289 C   0  0  0  0  0  0  0  0  0  0  0  0
   -2.5133    0.3628   -0.0476 O   0  0  0  0  0  0  0  0  0  0  0  0
   -1.5265    0.2333    0.9617 C   0  0  0  0  0  0  0  0  0  0  0  0
    0.6213   -0.8509    0.0992 C   0  0  0  0  0  0  0  0  0  0  0  0
    0.6741   -1.6776    1.1890 O   0  0  0  0  0  0  0  0  0  0  0  0
    2.9753    1.0818   -0.8086 H   0  0  0  0  0  0  0  0  0  0  0  0
    1.4075    0.7608    1.3519 H   0  0  0  0  0  0  0  0  0  0  0  0
    0.0617    2.1080   -0.1002 H   0  0  0  0  0  0  0  0  0  0  0  0
    0.5410    1.1064   -1.5951 H   0  0  0  0  0  0  0  0  0  0  0  0
   -1.6536    0.0182   -1.9519 H   0  0  0  0  0  0  0  0  0  0  0  0
   -1.8325   -1.4547   -0.8914 H   0  0  0  0  0  0  0  0  0  0  0  0
   -1.4861    1.1348    1.6065 H   0  0  0  0  0  0  0  0  0  0  0  0
   -1.7896   -0.6631    1.5615 H   0  0  0  0  0  0  0  0  0  0  0  0
    0.8971   -1.3351   -0.8843 H   0  0  0  0  0  0  0  0  0  0  0  0
    1.3141   -2.4079    0.9867 H   0  0  0  0  0  0  0  0  0  0  0  0
  1  2  1  0
  2  3  1  0
  3  4  1  0
  4  5  1  0
  5  6  1  0
  6  7  1  0
  4  8  1  0
  8  9  1  0
  8  2  1  0
  7  4  1  0
  1 10  1  0
  2 11  1  0
  3 12  1  0
  3 13  1  0
  5 14  1  0
  5 15  1  0
  7 16  1  0
  7 17  1  0
  8 18  1  0
  9 19  1  0
M  END
