
     RDKit          3D

 19 20  0  0  0  0  0  0  0  0999 V2000
    2.8897   -0.7100   -0.8771 O   0  0  0  0  0  0  0  0  0  0  0  0
    1.9177   -0.3746    0.0643 C   0  0  0  0  0  0  0  0  0  0  0  0
    0.7785    0.4663   -0.4999 C   0  0  0  0  0  0  0  0  0  0  0  0
    0.1772    1.4587    0.4388 C   0  0  0  0  0  0  0  0  0  0  0  0
   -1.3297    1.4276    0.3777 C   0  0  0  0  0  0  0  0  0  0  0  0
   -2.0563    0.3276    0.2984 C   0  0  0  0  0  0  0  0  0  0  0  0
   -1.6153   -1.0861    0.2508 C   0  0  0  0  0  0  0  0  0  0  0  0
   -0.3360   -1.1346    0.8552 O   0  0  0  0  0  0  0  0  0  0  0  0
    0.5812   -0.9592   -0.1487 C   0  0  0  0  0  0  0  0  0  0  0  0
    3.2670   -1.5930   -0.6196 H   0  0  0  0  0  0  0  0  0  0  0  0
    2.2971   -0.1049    1.0736 H   0  0  0  0  0  0  0  0  0  0  0  0
    0.7726    0.6835   -1.5880 H   0  0  0  0  0  0  0  0  0  0  0  0
    0.5720    2.4582    0.1990 H   0  0  0  0  0  0  0  0  0  0  0  0
    0.4447    1.1858    1.4803 H   0  0  0  0  0  0  0  0  0  0  0  0
   -1.8730    2.3465    0.3985 H   0  0  0  0  0  0  0  0  0  0  0  0
   -3.1221    0.4625    0.2624 H   0  0  0  0  0  0  0  0  0  0  0  0
   -2.3111   -1.7954    0.6835 H   0  0  0  0  0  0  0  0  0  0  0  0
   -1.5219   -1.3439   -0.8428 H   0  0  0  0  0  0  0  0  0  0  0  0
    0.4678   -1.7150   -0.9807 H   0  0  0  0  0  0  0  0  0  0  0  0
  1  2  1  0
  2  3  1  0
  3  4  1  0
  4  5  1  0
  5  6  2  0
  6  7  1  0
  7  8  1  0
  8  9  1  0
  9  2  1  0
  9  3  1  0
  1 10  1  0
  2 11  1  0
  3 12  1  0
  4 13  1  0
  4 14  1  0
  5 15  1  0
  6 16  1  0
  7 17  1  0
  7 18  1  0
  9 19  1  0
M  END
