
     RDKit          3D

 21 22  0  0  0  0  0  0  0  0999 V2000
   -2.1674   -1.7602    0.5797 O   0  0  0  0  0  0  0  0  0  0  0  0
   -1.3327   -0.6805    0.6036 C   0  0  0  0  0  0  0  0  0  0  0  0
   -1.8454    0.4825   -0.2567 C   0  0  0  0  0  0  0  0  0  0  0  0
   -0.5810    1.3516   -0.1722 C   0  0  0  0  0  0  0  0  0  0  0  0
    0.4228    0.3594   -0.7094 C   0  0  0  0  0  0  0  0  0  0  0  0
    1.7887    0.7168   -0.1821 C   0  0  0  0  0  0  0  0  0  0  0  0
    2.1746   -0.5866    0.5308 C   0  0  0  0  0  0  0  0  0  0  0  0
    0.9740   -1.0509    1.0300 O   0  0  0  0  0  0  0  0  0  0  0  0
    0.0211   -0.9076    0.0172 C   0  0  0  0  0  0  0  0  0  0  0  0
   -2.6810   -1.8880   -0.2340 H   0  0  0  0  0  0  0  0  0  0  0  0
   -1.2401   -0.2442    1.6359 H   0  0  0  0  0  0  0  0  0  0  0  0
   -2.6853    0.9979    0.2021 H   0  0  0  0  0  0  0  0  0  0  0  0
   -1.9921    0.1635   -1.2983 H   0  0  0  0  0  0  0  0  0  0  0  0
   -0.3475    1.4791    0.9088 H   0  0  0  0  0  0  0  0  0  0  0  0
   -0.6614    2.2674   -0.7372 H   0  0  0  0  0  0  0  0  0  0  0  0
    0.3848    0.2433   -1.8017 H   0  0  0  0  0  0  0  0  0  0  0  0
    2.5033    0.9778   -0.9733 H   0  0  0  0  0  0  0  0  0  0  0  0
    1.7691    1.5539    0.5330 H   0  0  0  0  0  0  0  0  0  0  0  0
    2.6209   -1.3068   -0.1841 H   0  0  0  0  0  0  0  0  0  0  0  0
    2.8448   -0.3833    1.3732 H   0  0  0  0  0  0  0  0  0  0  0  0
    0.0298   -1.7849   -0.6753 H   0  0  0  0  0  0  0  0  0  0  0  0
  1  2  1  0
  2  3  1  0
  3  4  1  0
  4  5  1  0
  5  6  1  0
  6  7  1  0
  7  8  1  0
  8  9  1  0
  9  2  1  0
  9  5  1  0
  1 10  1  0
  2 11  1  0
  3 12  1  0
  3 13  1  0
  4 14  1  0
  4 15  1  0
  5 16  1  0
  6 17  1  0
  6 18  1  0
  7 19  1  0
  7 20  1  0
  9 21  1  0
M  END
