
     RDKit          3D

 19 20  0  0  0  0  0  0  0  0999 V2000
   -2.3041   -1.4158   -0.0767 O   0  0  0  0  0  0  0  0  0  0  0  0
   -1.7917   -0.2269    0.4538 C   0  0  0  0  0  0  0  0  0  0  0  0
   -1.7267    0.9231   -0.4982 C   0  0  0  0  0  0  0  0  0  0  0  0
   -0.4713    0.2947   -0.0798 C   0  0  0  0  0  0  0  0  0  0  0  0
    0.2722   -0.6959   -0.9225 C   0  0  0  0  0  0  0  0  0  0  0  0
    1.2116   -1.3444   -0.1140 O   0  0  0  0  0  0  0  0  0  0  0  0
    2.1768   -0.4770    0.3603 C   0  0  0  0  0  0  0  0  0  0  0  0
    1.6468    0.9079    0.6273 C   0  0  0  0  0  0  0  0  0  0  0  0
    0.3012    0.9223    0.8673 O   0  0  0  0  0  0  0  0  0  0  0  0
   -3.2696   -1.4316    0.2214 H   0  0  0  0  0  0  0  0  0  0  0  0
   -2.0430   -0.0591    1.5210 H   0  0  0  0  0  0  0  0  0  0  0  0
   -2.1859    0.7913   -1.4907 H   0  0  0  0  0  0  0  0  0  0  0  0
   -1.9028    1.9660   -0.1010 H   0  0  0  0  0  0  0  0  0  0  0  0
   -0.3885   -1.4880   -1.3234 H   0  0  0  0  0  0  0  0  0  0  0  0
    0.7580   -0.2044   -1.7951 H   0  0  0  0  0  0  0  0  0  0  0  0
    3.0193   -0.4360   -0.3525 H   0  0  0  0  0  0  0  0  0  0  0  0
    2.5823   -0.9348    1.3000 H   0  0  0  0  0  0  0  0  0  0  0  0
    1.9584    1.6446   -0.1582 H   0  0  0  0  0  0  0  0  0  0  0  0
    2.1570    1.2641    1.5610 H   0  0  0  0  0  0  0  0  0  0  0  0
  1  2  1  0
  2  3  1  0
  3  4  1  0
  4  5  1  0
  5  6  1  0
  6  7  1  0
  7  8  1  0
  8  9  1  0
  4  2  1  0
  9  4  1  0
  1 10  1  0
  2 11  1  0
  3 12  1  0
  3 13  1  0
  5 14  1  0
  5 15  1  0
  7 16  1  0
  7 17  1  0
  8 18  1  0
  8 19  1  0
M  END
