
     RDKit          3D

 17 18  0  0  0  0  0  0  0  0999 V2000
    1.8852    0.9536    0.1011 O   0  0  0  0  0  0  0  0  0  0  0  0
    0.6456    0.5179    0.5406 C   0  0  0  0  0  0  0  0  0  0  0  0
   -0.4236    0.7719   -0.4923 C   0  0  0  0  0  0  0  0  0  0  0  0
   -0.9050    1.8763   -0.8387 O   0  0  0  0  0  0  0  0  0  0  0  0
    0.3224   -0.2183   -1.3478 C   0  0  0  0  0  0  0  0  0  0  0  0
    0.2906   -0.8651    0.0188 C   0  0  0  0  0  0  0  0  0  0  0  0
    0.8041   -1.9525    0.3609 O   0  0  0  0  0  0  0  0  0  0  0  0
   -1.1347   -0.4246    0.0769 C   0  0  0  0  0  0  0  0  0  0  0  0
   -1.6937   -0.2639    1.3272 O   0  0  0  0  0  0  0  0  0  0  0  0
    2.5974    0.3609    0.4902 H   0  0  0  0  0  0  0  0  0  0  0  0
    0.3802    0.7188    1.5774 H   0  0  0  0  0  0  0  0  0  0  0  0
   -0.8661    2.5904   -0.1583 H   0  0  0  0  0  0  0  0  0  0  0  0
    1.2926    0.1009   -1.7196 H   0  0  0  0  0  0  0  0  0  0  0  0
   -0.3398   -0.7548   -2.0402 H   0  0  0  0  0  0  0  0  0  0  0  0
    1.5592   -1.9090    0.9984 H   0  0  0  0  0  0  0  0  0  0  0  0
   -1.7700   -0.9631   -0.6517 H   0  0  0  0  0  0  0  0  0  0  0  0
   -2.6444   -0.5393    1.3767 H   0  0  0  0  0  0  0  0  0  0  0  0
  1  2  1  0
  2  3  1  0
  3  4  1  0
  3  5  1  0
  5  6  1  0
  6  7  1  0
  6  8  1  0
  8  9  1  0
  6  2  1  0
  8  3  1  0
  1 10  1  0
  2 11  1  0
  4 12  1  0
  5 13  1  0
  5 14  1  0
  7 15  1  0
  8 16  1  0
  9 17  1  0
M  END
