
     RDKit          3D

 19 21  0  0  0  0  0  0  0  0999 V2000
   -1.5624    0.2553    1.5977 O   0  0  0  0  0  0  0  0  0  0  0  0
   -1.3918    0.0585    0.2461 C   0  0  0  0  0  0  0  0  0  0  0  0
   -0.6639   -1.2210   -0.0888 C   0  0  0  0  0  0  0  0  0  0  0  0
    0.6763   -0.7607   -0.5737 C   0  0  0  0  0  0  0  0  0  0  0  0
    1.5129   -0.4058    0.6200 C   0  0  0  0  0  0  0  0  0  0  0  0
    1.5070    0.9478    0.7815 O   0  0  0  0  0  0  0  0  0  0  0  0
    0.7169    1.5358   -0.1583 C   0  0  0  0  0  0  0  0  0  0  0  0
   -0.6835    1.1853   -0.4036 C   0  0  0  0  0  0  0  0  0  0  0  0
    0.3751    0.5623   -1.2137 C   0  0  0  0  0  0  0  0  0  0  0  0
   -1.3767   -0.5648    2.1205 H   0  0  0  0  0  0  0  0  0  0  0  0
   -2.4143   -0.0399   -0.2005 H   0  0  0  0  0  0  0  0  0  0  0  0
   -1.1817   -1.8253   -0.8610 H   0  0  0  0  0  0  0  0  0  0  0  0
   -0.4935   -1.8175    0.8341 H   0  0  0  0  0  0  0  0  0  0  0  0
    1.1841   -1.4774   -1.2325 H   0  0  0  0  0  0  0  0  0  0  0  0
    1.0805   -0.8573    1.5605 H   0  0  0  0  0  0  0  0  0  0  0  0
    2.5222   -0.8628    0.5306 H   0  0  0  0  0  0  0  0  0  0  0  0
    1.0333    2.5699   -0.4441 H   0  0  0  0  0  0  0  0  0  0  0  0
   -1.3497    1.9804   -0.8368 H   0  0  0  0  0  0  0  0  0  0  0  0
    0.5091    0.7371   -2.2780 H   0  0  0  0  0  0  0  0  0  0  0  0
  1  2  1  0
  2  3  1  0
  3  4  1  0
  4  5  1  0
  5  6  1  0
  6  7  1  0
  7  8  1  0
  8  9  1  0
  8  2  1  0
  9  4  1  0
  9  7  1  0
  1 10  1  0
  2 11  1  0
  3 12  1  0
  3 13  1  0
  4 14  1  0
  5 15  1  0
  5 16  1  0
  7 17  1  0
  8 18  1  0
  9 19  1  0
M  END
