
     RDKit          3D

 19 21  0  0  0  0  0  0  0  0999 V2000
   -1.9103    1.1409    1.2614 O   0  0  0  0  0  0  0  0  0  0  0  0
   -1.8218    0.4525    0.0528 C   0  0  0  0  0  0  0  0  0  0  0  0
   -0.5239    0.4045   -0.6790 C   0  0  0  0  0  0  0  0  0  0  0  0
    0.7232    0.0347    0.0256 C   0  0  0  0  0  0  0  0  0  0  0  0
    2.0605    0.1662   -0.5005 C   0  0  0  0  0  0  0  0  0  0  0  0
    1.5927    0.9372    0.7504 C   0  0  0  0  0  0  0  0  0  0  0  0
    0.1230   -1.1758    0.6265 C   0  0  0  0  0  0  0  0  0  0  0  0
   -1.1723   -0.8646   -0.0468 C   0  0  0  0  0  0  0  0  0  0  0  0
   -1.7017   -1.7967   -0.9224 O   0  0  0  0  0  0  0  0  0  0  0  0
   -2.2501    2.0593    1.0538 H   0  0  0  0  0  0  0  0  0  0  0  0
   -2.7078    0.6044   -0.5923 H   0  0  0  0  0  0  0  0  0  0  0  0
   -0.4863    0.3638   -1.7793 H   0  0  0  0  0  0  0  0  0  0  0  0
    2.2523    0.8269   -1.3973 H   0  0  0  0  0  0  0  0  0  0  0  0
    2.7734   -0.6478   -0.3773 H   0  0  0  0  0  0  0  0  0  0  0  0
    2.0775    0.5449    1.6906 H   0  0  0  0  0  0  0  0  0  0  0  0
    1.5807    2.0281    0.6960 H   0  0  0  0  0  0  0  0  0  0  0  0
    0.5670   -2.0993    0.2086 H   0  0  0  0  0  0  0  0  0  0  0  0
    0.0846   -1.1971    1.7227 H   0  0  0  0  0  0  0  0  0  0  0  0
   -1.2608   -1.7820   -1.7937 H   0  0  0  0  0  0  0  0  0  0  0  0
  1  2  1  0
  2  3  1  0
  3  4  1  0
  4  5  1  0
  5  6  1  0
  4  7  1  0
  7  8  1  0
  8  9  1  0
  8  2  1  0
  8  3  1  0
  6  4  1  0
  1 10  1  0
  2 11  1  0
  3 12  1  0
  5 13  1  0
  5 14  1  0
  6 15  1  0
  6 16  1  0
  7 17  1  0
  7 18  1  0
  9 19  1  0
M  END
