
     RDKit          3D

 21 23  0  0  0  0  0  0  0  0999 V2000
    2.8590   -0.2337   -0.0264 O   0  0  0  0  0  0  0  0  0  0  0  0
    1.5259   -0.6247    0.0431 C   0  0  0  0  0  0  0  0  0  0  0  0
    0.8254   -0.0562   -1.1655 C   0  0  0  0  0  0  0  0  0  0  0  0
   -0.5076    0.4399   -0.7203 C   0  0  0  0  0  0  0  0  0  0  0  0
   -1.7380   -0.4454   -0.8930 C   0  0  0  0  0  0  0  0  0  0  0  0
   -1.6114   -0.7576    0.6002 C   0  0  0  0  0  0  0  0  0  0  0  0
   -0.5442    0.2838    0.7722 C   0  0  0  0  0  0  0  0  0  0  0  0
    0.8197   -0.0705    1.2453 C   0  0  0  0  0  0  0  0  0  0  0  0
   -0.6967    1.6176    0.1315 C   0  0  0  0  0  0  0  0  0  0  0  0
    2.9867    0.7068    0.2206 H   0  0  0  0  0  0  0  0  0  0  0  0
    1.4924   -1.7188    0.1030 H   0  0  0  0  0  0  0  0  0  0  0  0
    0.6438   -0.9058   -1.8769 H   0  0  0  0  0  0  0  0  0  0  0  0
    1.4249    0.7186   -1.6899 H   0  0  0  0  0  0  0  0  0  0  0  0
   -1.5177   -1.2788   -1.5624 H   0  0  0  0  0  0  0  0  0  0  0  0
   -2.6626    0.1300   -1.1505 H   0  0  0  0  0  0  0  0  0  0  0  0
   -1.3085   -1.8024    0.7240 H   0  0  0  0  0  0  0  0  0  0  0  0
   -2.5825   -0.5495    1.1018 H   0  0  0  0  0  0  0  0  0  0  0  0
    1.3482    0.8780    1.5212 H   0  0  0  0  0  0  0  0  0  0  0  0
    0.8596   -0.7154    2.1322 H   0  0  0  0  0  0  0  0  0  0  0  0
   -1.7182    2.0370    0.1777 H   0  0  0  0  0  0  0  0  0  0  0  0
    0.1016    2.3470    0.3123 H   0  0  0  0  0  0  0  0  0  0  0  0
  1  2  1  0
  2  3  1  0
  3  4  1  0
  4  5  1  0
  5  6  1  0
  6  7  1  0
  7  8  1  0
  7  9  1  0
  8  2  1  0
  7  4  1  0
  9  4  1  0
  1 10  1  0
  2 11  1  0
  3 12  1  0
  3 13  1  0
  5 14  1  0
  5 15  1  0
  6 16  1  0
  6 17  1  0
  8 18  1  0
  8 19  1  0
  9 20  1  0
  9 21  1  0
M  END
