
     RDKit          3D

 18 18  0  0  0  0  0  0  0  0999 V2000
   -2.2015   -0.8794   -0.7499 O   0  0  0  0  0  0  0  0  0  0  0  0
   -1.3920   -0.2823    0.2160 C   0  0  0  0  0  0  0  0  0  0  0  0
   -1.1022    1.1310   -0.1466 C   0  0  0  0  0  0  0  0  0  0  0  0
    0.0973    1.6685   -0.1625 C   0  0  0  0  0  0  0  0  0  0  0  0
    1.2683    0.8472    0.1982 C   0  0  0  0  0  0  0  0  0  0  0  0
    0.9941   -0.5353   -0.4155 C   0  0  0  0  0  0  0  0  0  0  0  0
    2.1155   -1.3450   -0.2950 O   0  0  0  0  0  0  0  0  0  0  0  0
   -0.1601   -1.1067    0.3859 C   0  0  0  0  0  0  0  0  0  0  0  0
   -3.0088   -1.2539   -0.3098 H   0  0  0  0  0  0  0  0  0  0  0  0
   -1.9460   -0.2371    1.1998 H   0  0  0  0  0  0  0  0  0  0  0  0
   -1.9485    1.7494   -0.4142 H   0  0  0  0  0  0  0  0  0  0  0  0
    0.2256    2.6937   -0.4347 H   0  0  0  0  0  0  0  0  0  0  0  0
    1.3251    0.7061    1.3154 H   0  0  0  0  0  0  0  0  0  0  0  0
    2.2241    1.2242   -0.2185 H   0  0  0  0  0  0  0  0  0  0  0  0
    0.7392   -0.3682   -1.4729 H   0  0  0  0  0  0  0  0  0  0  0  0
    2.9004   -0.7707   -0.3059 H   0  0  0  0  0  0  0  0  0  0  0  0
    0.1756   -1.0625    1.4636 H   0  0  0  0  0  0  0  0  0  0  0  0
   -0.3061   -2.1789    0.1465 H   0  0  0  0  0  0  0  0  0  0  0  0
  1  2  1  0
  2  3  1  0
  3  4  2  0
  4  5  1  0
  5  6  1  0
  6  7  1  0
  6  8  1  0
  8  2  1  0
  1  9  1  0
  2 10  1  0
  3 11  1  0
  4 12  1  0
  5 13  1  0
  5 14  1  0
  6 15  1  0
  7 16  1  0
  8 17  1  0
  8 18  1  0
M  END
