
     RDKit          3D

 19 19  0  0  0  0  0  0  0  0999 V2000
   -1.4968    0.3019    1.1600 O   0  0  0  0  0  0  0  0  0  0  0  0
   -1.4576    0.2901   -0.2434 C   0  0  0  0  0  0  0  0  0  0  0  0
   -0.7432    1.5123   -0.6824 C   0  0  0  0  0  0  0  0  0  0  0  0
    0.5103    1.8305   -0.4145 C   0  0  0  0  0  0  0  0  0  0  0  0
    1.4864    1.0736    0.3654 C   0  0  0  0  0  0  0  0  0  0  0  0
    1.3826   -0.2018    0.7112 C   0  0  0  0  0  0  0  0  0  0  0  0
    0.3670   -1.2326    0.4747 C   0  0  0  0  0  0  0  0  0  0  0  0
    1.0015   -2.4459    0.1525 O   0  0  0  0  0  0  0  0  0  0  0  0
   -0.5901   -0.8920   -0.6308 C   0  0  0  0  0  0  0  0  0  0  0  0
   -2.0753   -0.4134    1.5143 H   0  0  0  0  0  0  0  0  0  0  0  0
   -2.4752    0.2216   -0.6051 H   0  0  0  0  0  0  0  0  0  0  0  0
   -1.3514    2.1752   -1.2771 H   0  0  0  0  0  0  0  0  0  0  0  0
    0.8487    2.7904   -0.8390 H   0  0  0  0  0  0  0  0  0  0  0  0
    2.3641    1.6146    0.6805 H   0  0  0  0  0  0  0  0  0  0  0  0
    2.2364   -0.5490    1.2938 H   0  0  0  0  0  0  0  0  0  0  0  0
   -0.2291   -1.3627    1.4064 H   0  0  0  0  0  0  0  0  0  0  0  0
    1.5211   -2.2464   -0.6799 H   0  0  0  0  0  0  0  0  0  0  0  0
   -0.0533   -0.7039   -1.5894 H   0  0  0  0  0  0  0  0  0  0  0  0
   -1.2461   -1.7625   -0.7972 H   0  0  0  0  0  0  0  0  0  0  0  0
  1  2  1  0
  2  3  1  0
  3  4  2  0
  4  5  1  0
  5  6  2  0
  6  7  1  0
  7  8  1  0
  7  9  1  0
  9  2  1  0
  1 10  1  0
  2 11  1  0
  3 12  1  0
  4 13  1  0
  5 14  1  0
  6 15  1  0
  7 16  1  0
  8 17  1  0
  9 18  1  0
  9 19  1  0
M  END
