
     RDKit          3D

 19 21  0  0  0  0  0  0  0  0999 V2000
    1.5854   -0.1298   -1.5054 O   0  0  0  0  0  0  0  0  0  0  0  0
    1.7542    0.1057   -0.1397 C   0  0  0  0  0  0  0  0  0  0  0  0
    0.9308   -0.5778    0.8728 C   0  0  0  0  0  0  0  0  0  0  0  0
   -0.5429   -0.6898    0.7967 C   0  0  0  0  0  0  0  0  0  0  0  0
   -1.1400   -1.2651   -0.4479 C   0  0  0  0  0  0  0  0  0  0  0  0
   -2.1070   -0.2974   -0.7762 O   0  0  0  0  0  0  0  0  0  0  0  0
   -1.3682    0.9028   -0.7150 C   0  0  0  0  0  0  0  0  0  0  0  0
   -0.6515    0.7964    0.5841 C   0  0  0  0  0  0  0  0  0  0  0  0
    0.8188    0.9599    0.5987 C   0  0  0  0  0  0  0  0  0  0  0  0
    2.4294   -0.4068   -1.9519 H   0  0  0  0  0  0  0  0  0  0  0  0
    2.8322    0.2243    0.1315 H   0  0  0  0  0  0  0  0  0  0  0  0
    1.3840   -0.8566    1.8451 H   0  0  0  0  0  0  0  0  0  0  0  0
   -1.0272   -0.9747    1.7402 H   0  0  0  0  0  0  0  0  0  0  0  0
   -0.4321   -1.2886   -1.2814 H   0  0  0  0  0  0  0  0  0  0  0  0
   -1.6099   -2.2431   -0.2534 H   0  0  0  0  0  0  0  0  0  0  0  0
   -0.7488    1.0686   -1.5895 H   0  0  0  0  0  0  0  0  0  0  0  0
   -2.1570    1.7117   -0.7150 H   0  0  0  0  0  0  0  0  0  0  0  0
   -1.1760    1.3531    1.3750 H   0  0  0  0  0  0  0  0  0  0  0  0
    1.2258    1.6073    1.4314 H   0  0  0  0  0  0  0  0  0  0  0  0
  1  2  1  0
  2  3  1  0
  3  4  1  0
  4  5  1  0
  5  6  1  0
  6  7  1  0
  7  8  1  0
  8  9  1  0
  9  2  1  0
  9  3  1  0
  8  4  1  0
  1 10  1  0
  2 11  1  0
  3 12  1  0
  4 13  1  0
  5 14  1  0
  5 15  1  0
  7 16  1  0
  7 17  1  0
  8 18  1  0
  9 19  1  0
M  END
