
     RDKit          3D

 21 22  0  0  0  0  0  0  0  0999 V2000
    2.8877   -0.5140    0.7199 O   0  0  0  0  0  0  0  0  0  0  0  0
    1.8759   -0.3889   -0.2138 C   0  0  0  0  0  0  0  0  0  0  0  0
    1.5211    1.0431   -0.5893 C   0  0  0  0  0  0  0  0  0  0  0  0
    0.2722    0.9030    0.2034 C   0  0  0  0  0  0  0  0  0  0  0  0
   -1.0282    0.9780   -0.5906 C   0  0  0  0  0  0  0  0  0  0  0  0
   -2.0142    0.1105    0.2032 C   0  0  0  0  0  0  0  0  0  0  0  0
   -1.6205   -1.3260   -0.0108 C   0  0  0  0  0  0  0  0  0  0  0  0
   -0.2855   -1.3935   -0.2949 O   0  0  0  0  0  0  0  0  0  0  0  0
    0.5175   -0.5770    0.4679 C   0  0  0  0  0  0  0  0  0  0  0  0
    2.5632   -1.0405    1.5060 H   0  0  0  0  0  0  0  0  0  0  0  0
    1.9981   -0.9973   -1.1371 H   0  0  0  0  0  0  0  0  0  0  0  0
    1.4225    1.2371   -1.6642 H   0  0  0  0  0  0  0  0  0  0  0  0
    2.2361    1.7903   -0.1526 H   0  0  0  0  0  0  0  0  0  0  0  0
    0.2750    1.5123    1.1113 H   0  0  0  0  0  0  0  0  0  0  0  0
   -1.3858    1.9946   -0.7286 H   0  0  0  0  0  0  0  0  0  0  0  0
   -0.8628    0.4721   -1.5639 H   0  0  0  0  0  0  0  0  0  0  0  0
   -1.8481    0.3262    1.2907 H   0  0  0  0  0  0  0  0  0  0  0  0
   -3.0528    0.3356   -0.0399 H   0  0  0  0  0  0  0  0  0  0  0  0
   -1.8372   -1.9824    0.8410 H   0  0  0  0  0  0  0  0  0  0  0  0
   -2.2078   -1.6841   -0.9019 H   0  0  0  0  0  0  0  0  0  0  0  0
    0.5734   -0.7991    1.5444 H   0  0  0  0  0  0  0  0  0  0  0  0
  1  2  1  0
  2  3  1  0
  3  4  1  0
  4  5  1  0
  5  6  1  0
  6  7  1  0
  7  8  1  0
  8  9  1  0
  9  2  1  0
  9  4  1  0
  1 10  1  0
  2 11  1  0
  3 12  1  0
  3 13  1  0
  4 14  1  0
  5 15  1  0
  5 16  1  0
  6 17  1  0
  6 18  1  0
  7 19  1  0
  7 20  1  0
  9 21  1  0
M  END
