
     RDKit          3D

 22 22  0  0  0  0  0  0  0  0999 V2000
    2.7095    0.2956    0.3477 O   0  0  0  0  0  0  0  0  0  0  0  0
    1.3037    0.1913    0.4601 C   0  0  0  0  0  0  0  0  0  0  0  0
    0.9125   -1.0784   -0.2329 C   0  0  0  0  0  0  0  0  0  0  0  0
   -0.3733   -1.6720    0.2853 C   0  0  0  0  0  0  0  0  0  0  0  0
   -1.5349   -0.9404   -0.3822 C   0  0  0  0  0  0  0  0  0  0  0  0
   -1.5634    0.4526    0.2567 C   0  0  0  0  0  0  0  0  0  0  0  0
   -0.6910    1.3367   -0.5532 C   0  0  0  0  0  0  0  0  0  0  0  0
    0.7215    1.4215   -0.1404 C   0  0  0  0  0  0  0  0  0  0  0  0
    3.1230    0.5690    1.2014 H   0  0  0  0  0  0  0  0  0  0  0  0
    1.0930    0.1638    1.5435 H   0  0  0  0  0  0  0  0  0  0  0  0
    0.8838   -0.9330   -1.3169 H   0  0  0  0  0  0  0  0  0  0  0  0
    1.7291   -1.8244   -0.0198 H   0  0  0  0  0  0  0  0  0  0  0  0
   -0.4609   -1.5420    1.3742 H   0  0  0  0  0  0  0  0  0  0  0  0
   -0.4207   -2.7364   -0.0208 H   0  0  0  0  0  0  0  0  0  0  0  0
   -2.4876   -1.4679   -0.2581 H   0  0  0  0  0  0  0  0  0  0  0  0
   -1.3512   -0.8210   -1.4784 H   0  0  0  0  0  0  0  0  0  0  0  0
   -2.6119    0.8444    0.1974 H   0  0  0  0  0  0  0  0  0  0  0  0
   -1.3187    0.3887    1.3225 H   0  0  0  0  0  0  0  0  0  0  0  0
   -0.7315    0.9894   -1.6152 H   0  0  0  0  0  0  0  0  0  0  0  0
   -1.1242    2.3743   -0.5637 H   0  0  0  0  0  0  0  0  0  0  0  0
    0.8457    2.2526    0.6121 H   0  0  0  0  0  0  0  0  0  0  0  0
    1.3477    1.7354   -1.0192 H   0  0  0  0  0  0  0  0  0  0  0  0
  1  2  1  0
  2  3  1  0
  3  4  1  0
  4  5  1  0
  5  6  1  0
  6  7  1  0
  7  8  1  0
  8  2  1  0
  1  9  1  0
  2 10  1  0
  3 11  1  0
  3 12  1  0
  4 13  1  0
  4 14  1  0
  5 15  1  0
  5 16  1  0
  6 17  1  0
  6 18  1  0
  7 19  1  0
  7 20  1  0
  8 21  1  0
  8 22  1  0
M  END
