
     RDKit          3D

 21 22  0  0  0  0  0  0  0  0999 V2000
    0.4646   -2.1520    0.4870 O   0  0  0  0  0  0  0  0  0  0  0  0
   -0.1078   -1.0132   -0.0746 C   0  0  0  0  0  0  0  0  0  0  0  0
   -1.5083   -0.7837    0.4050 C   0  0  0  0  0  0  0  0  0  0  0  0
   -2.0854    0.3421   -0.4561 C   0  0  0  0  0  0  0  0  0  0  0  0
   -1.2531    1.5381   -0.1700 C   0  0  0  0  0  0  0  0  0  0  0  0
    0.0503    1.4732    0.0561 C   0  0  0  0  0  0  0  0  0  0  0  0
    0.7803    0.1910    0.0399 C   0  0  0  0  0  0  0  0  0  0  0  0
    2.1213    0.1092    0.6580 C   0  0  0  0  0  0  0  0  0  0  0  0
    2.0613    0.1097   -0.8138 C   0  0  0  0  0  0  0  0  0  0  0  0
    0.1964   -2.2912    1.4349 H   0  0  0  0  0  0  0  0  0  0  0  0
   -0.1861   -1.2385   -1.1798 H   0  0  0  0  0  0  0  0  0  0  0  0
   -1.5795   -0.4473    1.4453 H   0  0  0  0  0  0  0  0  0  0  0  0
   -2.1053   -1.6756    0.1792 H   0  0  0  0  0  0  0  0  0  0  0  0
   -3.1376    0.4736   -0.1251 H   0  0  0  0  0  0  0  0  0  0  0  0
   -2.0869    0.0679   -1.5272 H   0  0  0  0  0  0  0  0  0  0  0  0
   -1.7135    2.5140   -0.1407 H   0  0  0  0  0  0  0  0  0  0  0  0
    0.6357    2.3822    0.2654 H   0  0  0  0  0  0  0  0  0  0  0  0
    2.4926    1.0261    1.1573 H   0  0  0  0  0  0  0  0  0  0  0  0
    2.4674   -0.8282    1.1627 H   0  0  0  0  0  0  0  0  0  0  0  0
    2.2278   -0.8232   -1.3929 H   0  0  0  0  0  0  0  0  0  0  0  0
    2.2657    1.0258   -1.4104 H   0  0  0  0  0  0  0  0  0  0  0  0
  1  2  1  0
  2  3  1  0
  3  4  1  0
  4  5  1  0
  5  6  2  0
  6  7  1  0
  7  8  1  0
  8  9  1  0
  7  2  1  0
  9  7  1  0
  1 10  1  0
  2 11  1  0
  3 12  1  0
  3 13  1  0
  4 14  1  0
  4 15  1  0
  5 16  1  0
  6 17  1  0
  8 18  1  0
  8 19  1  0
  9 20  1  0
  9 21  1  0
M  END
