
     RDKit          3D

 21 23  0  0  0  0  0  0  0  0999 V2000
   -0.3608    2.5826    0.4355 O   0  0  0  0  0  0  0  0  0  0  0  0
   -0.9894    1.3864    0.7050 C   0  0  0  0  0  0  0  0  0  0  0  0
   -1.5121    0.6218   -0.4311 C   0  0  0  0  0  0  0  0  0  0  0  0
   -2.0412   -0.7691   -0.2882 C   0  0  0  0  0  0  0  0  0  0  0  0
   -0.8729   -1.1645    0.6249 C   0  0  0  0  0  0  0  0  0  0  0  0
   -0.2598    0.1603    0.3254 C   0  0  0  0  0  0  0  0  0  0  0  0
    1.0622    0.2732   -0.3705 C   0  0  0  0  0  0  0  0  0  0  0  0
    1.8554   -0.8822   -0.7837 C   0  0  0  0  0  0  0  0  0  0  0  0
    2.2330   -0.1987    0.4769 C   0  0  0  0  0  0  0  0  0  0  0  0
   -0.1156    2.7267   -0.4961 H   0  0  0  0  0  0  0  0  0  0  0  0
   -1.5043    1.3737    1.7012 H   0  0  0  0  0  0  0  0  0  0  0  0
   -1.3693    1.0187   -1.4513 H   0  0  0  0  0  0  0  0  0  0  0  0
   -3.0326   -0.8424    0.2059 H   0  0  0  0  0  0  0  0  0  0  0  0
   -1.9724   -1.3456   -1.2399 H   0  0  0  0  0  0  0  0  0  0  0  0
   -1.1637   -1.2618    1.6869 H   0  0  0  0  0  0  0  0  0  0  0  0
   -0.3080   -2.0357    0.2661 H   0  0  0  0  0  0  0  0  0  0  0  0
    1.1823    1.2197   -0.9574 H   0  0  0  0  0  0  0  0  0  0  0  0
    1.5096   -1.9334   -0.6954 H   0  0  0  0  0  0  0  0  0  0  0  0
    2.5561   -0.7354   -1.6461 H   0  0  0  0  0  0  0  0  0  0  0  0
    2.0447   -0.7241    1.4115 H   0  0  0  0  0  0  0  0  0  0  0  0
    3.0589    0.5299    0.5208 H   0  0  0  0  0  0  0  0  0  0  0  0
  1  2  1  0
  2  3  1  0
  3  4  1  0
  4  5  1  0
  5  6  1  0
  6  7  1  0
  7  8  1  0
  8  9  1  0
  6  2  1  0
  9  7  1  0
  6  3  1  0
  1 10  1  0
  2 11  1  0
  3 12  1  0
  4 13  1  0
  4 14  1  0
  5 15  1  0
  5 16  1  0
  7 17  1  0
  8 18  1  0
  8 19  1  0
  9 20  1  0
  9 21  1  0
M  END
