
     RDKit          3D

 19 20  0  0  0  0  0  0  0  0999 V2000
   -1.2954   -0.9193   -1.8669 O   0  0  0  0  0  0  0  0  0  0  0  0
   -0.2928   -0.3553   -1.1376 C   0  0  0  0  0  0  0  0  0  0  0  0
   -0.6537    0.9761   -0.5209 C   0  0  0  0  0  0  0  0  0  0  0  0
    0.6294    1.5472    0.0229 C   0  0  0  0  0  0  0  0  0  0  0  0
    1.5506    0.7305    0.4954 C   0  0  0  0  0  0  0  0  0  0  0  0
    1.4843   -0.7415    0.4596 C   0  0  0  0  0  0  0  0  0  0  0  0
    0.0449   -1.1537    0.1290 C   0  0  0  0  0  0  0  0  0  0  0  0
   -0.9145   -0.5918    1.0832 C   0  0  0  0  0  0  0  0  0  0  0  0
   -1.4441    0.5490    0.6618 C   0  0  0  0  0  0  0  0  0  0  0  0
   -2.1666   -0.8043   -1.4306 H   0  0  0  0  0  0  0  0  0  0  0  0
    0.6072   -0.2108   -1.7497 H   0  0  0  0  0  0  0  0  0  0  0  0
   -1.1732    1.6556   -1.1866 H   0  0  0  0  0  0  0  0  0  0  0  0
    0.7981    2.6303    0.0271 H   0  0  0  0  0  0  0  0  0  0  0  0
    2.4339    1.1815    0.9496 H   0  0  0  0  0  0  0  0  0  0  0  0
    1.8064   -1.2121    1.4095 H   0  0  0  0  0  0  0  0  0  0  0  0
    2.0943   -1.1121   -0.3901 H   0  0  0  0  0  0  0  0  0  0  0  0
   -0.0502   -2.2221   -0.0549 H   0  0  0  0  0  0  0  0  0  0  0  0
   -1.1798   -1.0360    2.0313 H   0  0  0  0  0  0  0  0  0  0  0  0
   -2.2789    1.0888    1.0680 H   0  0  0  0  0  0  0  0  0  0  0  0
  1  2  1  0
  2  3  1  0
  3  4  1  0
  4  5  2  0
  5  6  1  0
  6  7  1  0
  7  8  1  0
  8  9  2  0
  7  2  1  0
  9  3  1  0
  1 10  1  0
  2 11  1  0
  3 12  1  0
  4 13  1  0
  5 14  1  0
  6 15  1  0
  6 16  1  0
  7 17  1  0
  8 18  1  0
  9 19  1  0
M  END
