
     RDKit          3D

 19 21  0  0  0  0  0  0  0  0999 V2000
    2.4725   -1.0271    0.3671 O   0  0  0  0  0  0  0  0  0  0  0  0
    1.3022   -0.6946   -0.2867 C   0  0  0  0  0  0  0  0  0  0  0  0
    0.0715   -1.1731    0.4471 C   0  0  0  0  0  0  0  0  0  0  0  0
   -1.0246   -0.3196   -0.0423 C   0  0  0  0  0  0  0  0  0  0  0  0
   -1.9270    0.3317    0.9984 C   0  0  0  0  0  0  0  0  0  0  0  0
   -1.0676    1.4460    0.8981 O   0  0  0  0  0  0  0  0  0  0  0  0
   -0.3465    1.0622   -0.2018 C   0  0  0  0  0  0  0  0  0  0  0  0
    1.1176    0.8219   -0.1396 C   0  0  0  0  0  0  0  0  0  0  0  0
   -1.0452    0.3644   -1.3504 C   0  0  0  0  0  0  0  0  0  0  0  0
    3.1008   -0.2405    0.3473 H   0  0  0  0  0  0  0  0  0  0  0  0
    1.3033   -1.0044   -1.3327 H   0  0  0  0  0  0  0  0  0  0  0  0
   -0.0826   -2.2480    0.4006 H   0  0  0  0  0  0  0  0  0  0  0  0
    0.2557   -0.9171    1.5325 H   0  0  0  0  0  0  0  0  0  0  0  0
   -2.9137    0.5383    0.5466 H   0  0  0  0  0  0  0  0  0  0  0  0
   -1.9117   -0.1906    1.9515 H   0  0  0  0  0  0  0  0  0  0  0  0
    1.6252    1.2008    0.7529 H   0  0  0  0  0  0  0  0  0  0  0  0
    1.5662    1.2465   -1.0848 H   0  0  0  0  0  0  0  0  0  0  0  0
   -0.4378    0.0567   -2.1942 H   0  0  0  0  0  0  0  0  0  0  0  0
   -2.0585    0.7464   -1.6567 H   0  0  0  0  0  0  0  0  0  0  0  0
  1  2  1  0
  2  3  1  0
  3  4  1  0
  4  5  1  0
  5  6  1  0
  6  7  1  0
  7  8  1  0
  7  9  1  0
  8  2  1  0
  7  4  1  0
  9  4  1  0
  1 10  1  0
  2 11  1  0
  3 12  1  0
  3 13  1  0
  5 14  1  0
  5 15  1  0
  8 16  1  0
  8 17  1  0
  9 18  1  0
  9 19  1  0
M  END
