
     RDKit          3D

 21 22  0  0  0  0  0  0  0  0999 V2000
    2.8527   -0.4025    0.6807 O   0  0  0  0  0  0  0  0  0  0  0  0
    1.7883   -0.1718   -0.1469 C   0  0  0  0  0  0  0  0  0  0  0  0
    1.2760    1.2728   -0.0560 C   0  0  0  0  0  0  0  0  0  0  0  0
   -0.0207    1.1185   -0.8637 C   0  0  0  0  0  0  0  0  0  0  0  0
   -0.5576   -0.1644   -0.3290 C   0  0  0  0  0  0  0  0  0  0  0  0
    0.5485   -0.9061    0.3461 C   0  0  0  0  0  0  0  0  0  0  0  0
   -1.7343   -0.8476   -0.8502 C   0  0  0  0  0  0  0  0  0  0  0  0
   -1.9095   -0.0370    0.3570 C   0  0  0  0  0  0  0  0  0  0  0  0
   -1.9093   -0.6019    1.6385 O   0  0  0  0  0  0  0  0  0  0  0  0
    2.7491   -1.2817    1.1460 H   0  0  0  0  0  0  0  0  0  0  0  0
    1.9330   -0.4208   -1.1969 H   0  0  0  0  0  0  0  0  0  0  0  0
    0.9428    1.5127    0.9774 H   0  0  0  0  0  0  0  0  0  0  0  0
    1.9605    1.9888   -0.4948 H   0  0  0  0  0  0  0  0  0  0  0  0
   -0.6905    1.9811   -0.7220 H   0  0  0  0  0  0  0  0  0  0  0  0
    0.2180    1.0831   -1.9596 H   0  0  0  0  0  0  0  0  0  0  0  0
    0.5337   -1.9608    0.0603 H   0  0  0  0  0  0  0  0  0  0  0  0
    0.5047   -0.7290    1.4418 H   0  0  0  0  0  0  0  0  0  0  0  0
   -1.6937   -1.9746   -0.8147 H   0  0  0  0  0  0  0  0  0  0  0  0
   -2.2892   -0.5118   -1.7619 H   0  0  0  0  0  0  0  0  0  0  0  0
   -2.4562    0.9273    0.2595 H   0  0  0  0  0  0  0  0  0  0  0  0
   -2.0462    0.1255    2.2886 H   0  0  0  0  0  0  0  0  0  0  0  0
  1  2  1  0
  2  3  1  0
  3  4  1  0
  4  5  1  0
  5  6  1  0
  5  7  1  0
  7  8  1  0
  8  9  1  0
  6  2  1  0
  8  5  1  0
  1 10  1  0
  2 11  1  0
  3 12  1  0
  3 13  1  0
  4 14  1  0
  4 15  1  0
  6 16  1  0
  6 17  1  0
  7 18  1  0
  7 19  1  0
  8 20  1  0
  9 21  1  0
M  END
