
     RDKit          3D

 17 18  0  0  0  0  0  0  0  0999 V2000
   -1.4001    0.4074    1.4056 O   0  0  0  0  0  0  0  0  0  0  0  0
   -1.2893    0.5349    0.0009 C   0  0  0  0  0  0  0  0  0  0  0  0
   -0.1761    1.5147   -0.2139 C   0  0  0  0  0  0  0  0  0  0  0  0
    1.1152    1.2466   -0.3258 C   0  0  0  0  0  0  0  0  0  0  0  0
    1.8059   -0.0490   -0.2731 C   0  0  0  0  0  0  0  0  0  0  0  0
    1.2920   -1.2453    0.0460 C   0  0  0  0  0  0  0  0  0  0  0  0
   -0.0882   -1.4853    0.4103 C   0  0  0  0  0  0  0  0  0  0  0  0
   -1.0907   -1.9847   -0.3063 O   0  0  0  0  0  0  0  0  0  0  0  0
   -0.9017   -0.7211   -0.6584 C   0  0  0  0  0  0  0  0  0  0  0  0
   -2.3161    0.1441    1.6735 H   0  0  0  0  0  0  0  0  0  0  0  0
   -2.2599    0.9671   -0.3251 H   0  0  0  0  0  0  0  0  0  0  0  0
   -0.5185    2.5255   -0.2761 H   0  0  0  0  0  0  0  0  0  0  0  0
    1.7546    2.1025   -0.4781 H   0  0  0  0  0  0  0  0  0  0  0  0
    2.8638   -0.0341   -0.5231 H   0  0  0  0  0  0  0  0  0  0  0  0
    1.9571   -2.0736    0.0270 H   0  0  0  0  0  0  0  0  0  0  0  0
   -0.3276   -1.2753    1.4764 H   0  0  0  0  0  0  0  0  0  0  0  0
   -0.4203   -0.5745   -1.6598 H   0  0  0  0  0  0  0  0  0  0  0  0
  1  2  1  0
  2  3  1  0
  3  4  2  0
  4  5  1  0
  5  6  2  0
  6  7  1  0
  7  8  1  0
  8  9  1  0
  9  2  1  0
  9  7  1  0
  1 10  1  0
  2 11  1  0
  3 12  1  0
  4 13  1  0
  5 14  1  0
  6 15  1  0
  7 16  1  0
  9 17  1  0
M  END
