
     RDKit          3D

 19 21  0  0  0  0  0  0  0  0999 V2000
    2.6715    1.1138   -0.0877 O   0  0  0  0  0  0  0  0  0  0  0  0
    1.4956    0.7749    0.5923 C   0  0  0  0  0  0  0  0  0  0  0  0
    1.1432   -0.6539    0.8203 C   0  0  0  0  0  0  0  0  0  0  0  0
    1.8182   -1.5658    0.0333 O   0  0  0  0  0  0  0  0  0  0  0  0
    0.9764   -1.1941   -1.0264 C   0  0  0  0  0  0  0  0  0  0  0  0
    0.5173    0.0147   -0.2959 C   0  0  0  0  0  0  0  0  0  0  0  0
   -0.8596    0.5339   -0.3665 C   0  0  0  0  0  0  0  0  0  0  0  0
   -1.7495    0.6624    0.8131 C   0  0  0  0  0  0  0  0  0  0  0  0
   -2.0222   -0.3946   -0.2721 C   0  0  0  0  0  0  0  0  0  0  0  0
    2.3554    1.6761   -0.8615 H   0  0  0  0  0  0  0  0  0  0  0  0
    1.0907    1.4844    1.3130 H   0  0  0  0  0  0  0  0  0  0  0  0
    0.6662   -0.9394    1.7594 H   0  0  0  0  0  0  0  0  0  0  0  0
    0.1745   -1.9812   -1.1041 H   0  0  0  0  0  0  0  0  0  0  0  0
    1.4939   -0.9677   -1.9753 H   0  0  0  0  0  0  0  0  0  0  0  0
   -0.9972    1.3582   -1.1281 H   0  0  0  0  0  0  0  0  0  0  0  0
   -2.4949    1.5010    0.8553 H   0  0  0  0  0  0  0  0  0  0  0  0
   -1.4663    0.2591    1.7971 H   0  0  0  0  0  0  0  0  0  0  0  0
   -1.8872   -1.4498    0.0370 H   0  0  0  0  0  0  0  0  0  0  0  0
   -2.9260   -0.2321   -0.9030 H   0  0  0  0  0  0  0  0  0  0  0  0
  1  2  1  0
  2  3  1  0
  3  4  1  0
  4  5  1  0
  5  6  1  0
  6  7  1  0
  7  8  1  0
  8  9  1  0
  6  2  1  0
  9  7  1  0
  6  3  1  0
  1 10  1  0
  2 11  1  0
  3 12  1  0
  5 13  1  0
  5 14  1  0
  7 15  1  0
  8 16  1  0
  8 17  1  0
  9 18  1  0
  9 19  1  0
M  END
