
     RDKit          3D

 21 23  0  0  0  0  0  0  0  0999 V2000
   -1.7575   -1.7165    0.2257 O   0  0  0  0  0  0  0  0  0  0  0  0
   -1.3691   -0.4626    0.7497 C   0  0  0  0  0  0  0  0  0  0  0  0
   -2.0750    0.6194   -0.0837 C   0  0  0  0  0  0  0  0  0  0  0  0
   -0.9403    0.3907   -1.0994 C   0  0  0  0  0  0  0  0  0  0  0  0
   -0.1298    0.0036    0.0920 C   0  0  0  0  0  0  0  0  0  0  0  0
    0.6360    1.1134    0.7187 C   0  0  0  0  0  0  0  0  0  0  0  0
    1.8801    0.2612    0.5870 C   0  0  0  0  0  0  0  0  0  0  0  0
    2.2372   -0.3217   -0.7089 C   0  0  0  0  0  0  0  0  0  0  0  0
    1.0186   -0.8790   -0.0493 C   0  0  0  0  0  0  0  0  0  0  0  0
   -0.9982   -2.1363   -0.2816 H   0  0  0  0  0  0  0  0  0  0  0  0
   -1.4788   -0.3575    1.8263 H   0  0  0  0  0  0  0  0  0  0  0  0
   -1.9386    1.5787    0.4353 H   0  0  0  0  0  0  0  0  0  0  0  0
   -3.0655    0.3547   -0.4381 H   0  0  0  0  0  0  0  0  0  0  0  0
   -1.1806   -0.4993   -1.7357 H   0  0  0  0  0  0  0  0  0  0  0  0
   -0.6182    1.2898   -1.6280 H   0  0  0  0  0  0  0  0  0  0  0  0
    0.3467    1.3580    1.7477 H   0  0  0  0  0  0  0  0  0  0  0  0
    0.6881    2.0203    0.0873 H   0  0  0  0  0  0  0  0  0  0  0  0
    2.4536    0.0092    1.4772 H   0  0  0  0  0  0  0  0  0  0  0  0
    3.1305   -0.9660   -0.7352 H   0  0  0  0  0  0  0  0  0  0  0  0
    2.0417    0.1826   -1.6781 H   0  0  0  0  0  0  0  0  0  0  0  0
    1.1191   -1.8426    0.4912 H   0  0  0  0  0  0  0  0  0  0  0  0
  1  2  1  0
  2  3  1  0
  3  4  1  0
  4  5  1  0
  5  6  1  0
  6  7  1  0
  7  8  1  0
  8  9  1  0
  5  2  1  0
  9  7  1  0
  9  5  1  0
  1 10  1  0
  2 11  1  0
  3 12  1  0
  3 13  1  0
  4 14  1  0
  4 15  1  0
  6 16  1  0
  6 17  1  0
  7 18  1  0
  8 19  1  0
  8 20  1  0
  9 21  1  0
M  END
