
     RDKit          3D

 21 22  0  0  0  0  0  0  0  0999 V2000
    1.7208    1.4768   -0.0892 O   0  0  0  0  0  0  0  0  0  0  0  0
    1.5430    0.2113   -0.5910 C   0  0  0  0  0  0  0  0  0  0  0  0
    1.8795   -0.8749    0.4285 C   0  0  0  0  0  0  0  0  0  0  0  0
    0.7266   -0.8131    1.2406 O   0  0  0  0  0  0  0  0  0  0  0  0
   -0.2697   -1.0248    0.2789 C   0  0  0  0  0  0  0  0  0  0  0  0
   -1.6260   -0.6214    0.7394 C   0  0  0  0  0  0  0  0  0  0  0  0
   -1.7005    0.8606    0.4148 C   0  0  0  0  0  0  0  0  0  0  0  0
   -0.8125    1.0579   -0.8020 C   0  0  0  0  0  0  0  0  0  0  0  0
    0.0963   -0.1218   -0.8827 C   0  0  0  0  0  0  0  0  0  0  0  0
    1.8633    1.3854    0.8958 H   0  0  0  0  0  0  0  0  0  0  0  0
    2.1712   -0.0134   -1.4817 H   0  0  0  0  0  0  0  0  0  0  0  0
    2.7951   -0.6755    0.9773 H   0  0  0  0  0  0  0  0  0  0  0  0
    1.8969   -1.8299   -0.1558 H   0  0  0  0  0  0  0  0  0  0  0  0
   -0.1891   -2.0709   -0.0580 H   0  0  0  0  0  0  0  0  0  0  0  0
   -1.7959   -0.7443    1.8262 H   0  0  0  0  0  0  0  0  0  0  0  0
   -2.3950   -1.1792    0.1496 H   0  0  0  0  0  0  0  0  0  0  0  0
   -2.7555    1.1025    0.1802 H   0  0  0  0  0  0  0  0  0  0  0  0
   -1.4088    1.4943    1.2642 H   0  0  0  0  0  0  0  0  0  0  0  0
   -0.3064    2.0323   -0.7864 H   0  0  0  0  0  0  0  0  0  0  0  0
   -1.4728    1.0273   -1.7169 H   0  0  0  0  0  0  0  0  0  0  0  0
    0.0397   -0.6792   -1.8317 H   0  0  0  0  0  0  0  0  0  0  0  0
  1  2  1  0
  2  3  1  0
  3  4  1  0
  4  5  1  0
  5  6  1  0
  6  7  1  0
  7  8  1  0
  8  9  1  0
  9  2  1  0
  9  5  1  0
  1 10  1  0
  2 11  1  0
  3 12  1  0
  3 13  1  0
  5 14  1  0
  6 15  1  0
  6 16  1  0
  7 17  1  0
  7 18  1  0
  8 19  1  0
  8 20  1  0
  9 21  1  0
M  END
