
     RDKit          3D

 21 23  0  0  0  0  0  0  0  0999 V2000
    2.2413   -0.0504   -1.2530 O   0  0  0  0  0  0  0  0  0  0  0  0
    0.9418    0.2179   -0.9017 C   0  0  0  0  0  0  0  0  0  0  0  0
    0.2360   -1.0670   -0.5199 C   0  0  0  0  0  0  0  0  0  0  0  0
   -1.2585   -0.7943   -0.6973 C   0  0  0  0  0  0  0  0  0  0  0  0
   -1.5118    0.5934   -0.2149 C   0  0  0  0  0  0  0  0  0  0  0  0
   -0.5823    1.0981    0.8110 C   0  0  0  0  0  0  0  0  0  0  0  0
    0.3422    0.2039    1.4487 C   0  0  0  0  0  0  0  0  0  0  0  0
    0.4208   -1.1989    0.9890 C   0  0  0  0  0  0  0  0  0  0  0  0
    0.8414    1.0436    0.3460 C   0  0  0  0  0  0  0  0  0  0  0  0
    2.6661    0.8120   -1.5071 H   0  0  0  0  0  0  0  0  0  0  0  0
    0.3946    0.7551   -1.7304 H   0  0  0  0  0  0  0  0  0  0  0  0
    0.5765   -1.9402   -1.0718 H   0  0  0  0  0  0  0  0  0  0  0  0
   -1.7845   -1.5301   -0.0439 H   0  0  0  0  0  0  0  0  0  0  0  0
   -1.5270   -0.9532   -1.7504 H   0  0  0  0  0  0  0  0  0  0  0  0
   -1.4952    1.3133   -1.0864 H   0  0  0  0  0  0  0  0  0  0  0  0
   -2.5674    0.6337    0.1517 H   0  0  0  0  0  0  0  0  0  0  0  0
   -0.9104    2.0032    1.3554 H   0  0  0  0  0  0  0  0  0  0  0  0
    0.6527    0.3787    2.4979 H   0  0  0  0  0  0  0  0  0  0  0  0
   -0.4429   -1.7598    1.4489 H   0  0  0  0  0  0  0  0  0  0  0  0
    1.3446   -1.7168    1.2452 H   0  0  0  0  0  0  0  0  0  0  0  0
    1.4217    1.9578    0.4829 H   0  0  0  0  0  0  0  0  0  0  0  0
  1  2  1  0
  2  3  1  0
  3  4  1  0
  4  5  1  0
  5  6  1  0
  6  7  1  0
  7  8  1  0
  7  9  1  0
  9  2  1  0
  8  3  1  0
  9  6  1  0
  1 10  1  0
  2 11  1  0
  3 12  1  0
  4 13  1  0
  4 14  1  0
  5 15  1  0
  5 16  1  0
  6 17  1  0
  7 18  1  0
  8 19  1  0
  8 20  1  0
  9 21  1  0
M  END
