
     RDKit          3D

 21 22  0  0  0  0  0  0  0  0999 V2000
   -1.9373   -0.8943    1.1376 O   0  0  0  0  0  0  0  0  0  0  0  0
   -1.5938   -0.4174   -0.1281 C   0  0  0  0  0  0  0  0  0  0  0  0
   -1.2824    1.0357   -0.1006 C   0  0  0  0  0  0  0  0  0  0  0  0
   -0.1668    1.6075    0.3254 C   0  0  0  0  0  0  0  0  0  0  0  0
    1.2011    1.0254    0.3305 C   0  0  0  0  0  0  0  0  0  0  0  0
    1.4728    0.2659   -0.9551 C   0  0  0  0  0  0  0  0  0  0  0  0
    0.8622   -0.9452   -0.3093 C   0  0  0  0  0  0  0  0  0  0  0  0
   -0.5141   -1.2549   -0.7028 C   0  0  0  0  0  0  0  0  0  0  0  0
    1.0788   -0.3371    1.0173 C   0  0  0  0  0  0  0  0  0  0  0  0
   -2.2467   -0.1424    1.7363 H   0  0  0  0  0  0  0  0  0  0  0  0
   -2.5001   -0.5339   -0.7738 H   0  0  0  0  0  0  0  0  0  0  0  0
   -2.0547    1.7316   -0.4724 H   0  0  0  0  0  0  0  0  0  0  0  0
   -0.2264    2.6230    0.7243 H   0  0  0  0  0  0  0  0  0  0  0  0
    1.9931    1.6695    0.6957 H   0  0  0  0  0  0  0  0  0  0  0  0
    2.5192    0.2031   -1.2524 H   0  0  0  0  0  0  0  0  0  0  0  0
    0.7932    0.6704   -1.7469 H   0  0  0  0  0  0  0  0  0  0  0  0
    1.5400   -1.8265   -0.4576 H   0  0  0  0  0  0  0  0  0  0  0  0
   -0.5909   -1.1763   -1.8276 H   0  0  0  0  0  0  0  0  0  0  0  0
   -0.7367   -2.3196   -0.4597 H   0  0  0  0  0  0  0  0  0  0  0  0
    2.0951   -0.5739    1.4484 H   0  0  0  0  0  0  0  0  0  0  0  0
    0.2944   -0.4105    1.7707 H   0  0  0  0  0  0  0  0  0  0  0  0
  1  2  1  0
  2  3  1  0
  3  4  2  0
  4  5  1  0
  5  6  1  0
  6  7  1  0
  7  8  1  0
  7  9  1  0
  8  2  1  0
  9  5  1  0
  1 10  1  0
  2 11  1  0
  3 12  1  0
  4 13  1  0
  5 14  1  0
  6 15  1  0
  6 16  1  0
  7 17  1  0
  8 18  1  0
  8 19  1  0
  9 20  1  0
  9 21  1  0
M  END
