
     RDKit          3D

 21 22  0  0  0  0  0  0  0  0999 V2000
    2.1687   -1.0284   -0.9062 O   0  0  0  0  0  0  0  0  0  0  0  0
    1.6075   -0.3625    0.1821 C   0  0  0  0  0  0  0  0  0  0  0  0
    1.8652    1.1124    0.1263 C   0  0  0  0  0  0  0  0  0  0  0  0
    0.5665    1.7180   -0.2936 C   0  0  0  0  0  0  0  0  0  0  0  0
   -0.4570    0.6870   -0.0306 C   0  0  0  0  0  0  0  0  0  0  0  0
    0.1389   -0.4703    0.2337 C   0  0  0  0  0  0  0  0  0  0  0  0
   -0.9207   -1.4988    0.4976 C   0  0  0  0  0  0  0  0  0  0  0  0
   -2.0338   -0.9634   -0.3824 C   0  0  0  0  0  0  0  0  0  0  0  0
   -1.9416    0.5114    0.0366 C   0  0  0  0  0  0  0  0  0  0  0  0
    2.6953   -1.8189   -0.5740 H   0  0  0  0  0  0  0  0  0  0  0  0
    2.0165   -0.7629    1.1282 H   0  0  0  0  0  0  0  0  0  0  0  0
    2.6213    1.3560   -0.6694 H   0  0  0  0  0  0  0  0  0  0  0  0
    2.1860    1.5496    1.0901 H   0  0  0  0  0  0  0  0  0  0  0  0
    0.5565    1.9242   -1.3813 H   0  0  0  0  0  0  0  0  0  0  0  0
    0.2925    2.6160    0.3097 H   0  0  0  0  0  0  0  0  0  0  0  0
   -0.6046   -2.5121    0.2173 H   0  0  0  0  0  0  0  0  0  0  0  0
   -1.2344   -1.3839    1.5422 H   0  0  0  0  0  0  0  0  0  0  0  0
   -1.7578   -1.0110   -1.4478 H   0  0  0  0  0  0  0  0  0  0  0  0
   -3.0043   -1.3944   -0.1465 H   0  0  0  0  0  0  0  0  0  0  0  0
   -2.4883    1.1660   -0.6307 H   0  0  0  0  0  0  0  0  0  0  0  0
   -2.2722    0.5662    1.0986 H   0  0  0  0  0  0  0  0  0  0  0  0
  1  2  1  0
  2  3  1  0
  3  4  1  0
  4  5  1  0
  5  6  2  0
  6  7  1  0
  7  8  1  0
  8  9  1  0
  6  2  1  0
  9  5  1  0
  1 10  1  0
  2 11  1  0
  3 12  1  0
  3 13  1  0
  4 14  1  0
  4 15  1  0
  7 16  1  0
  7 17  1  0
  8 18  1  0
  8 19  1  0
  9 20  1  0
  9 21  1  0
M  END
