
     RDKit          3D

 17 18  0  0  0  0  0  0  0  0999 V2000
    1.2564   -1.2009   -1.2650 O   0  0  0  0  0  0  0  0  0  0  0  0
    0.4734   -1.3171   -0.1327 C   0  0  0  0  0  0  0  0  0  0  0  0
    0.4984   -0.0337    0.7396 C   0  0  0  0  0  0  0  0  0  0  0  0
    0.7028   -0.2210    2.0877 O   0  0  0  0  0  0  0  0  0  0  0  0
    0.8925    1.2097    0.0683 C   0  0  0  0  0  0  0  0  0  0  0  0
   -0.0368    1.5842   -0.8045 C   0  0  0  0  0  0  0  0  0  0  0  0
   -1.1644    0.5974   -0.7931 C   0  0  0  0  0  0  0  0  0  0  0  0
   -0.7462   -0.5373    0.0858 C   0  0  0  0  0  0  0  0  0  0  0  0
   -1.7468   -1.0757    0.9068 O   0  0  0  0  0  0  0  0  0  0  0  0
    2.2199   -1.1589   -0.9819 H   0  0  0  0  0  0  0  0  0  0  0  0
    0.5480   -2.2778    0.4170 H   0  0  0  0  0  0  0  0  0  0  0  0
    1.0750    0.5678    2.5225 H   0  0  0  0  0  0  0  0  0  0  0  0
    1.8015    1.7741    0.2305 H   0  0  0  0  0  0  0  0  0  0  0  0
   -0.0325    2.4434   -1.4399 H   0  0  0  0  0  0  0  0  0  0  0  0
   -1.4859    0.3188   -1.7951 H   0  0  0  0  0  0  0  0  0  0  0  0
   -2.0109    1.1284   -0.2750 H   0  0  0  0  0  0  0  0  0  0  0  0
   -2.2443   -1.8015    0.4288 H   0  0  0  0  0  0  0  0  0  0  0  0
  1  2  1  0
  2  3  1  0
  3  4  1  0
  3  5  1  0
  5  6  2  0
  6  7  1  0
  7  8  1  0
  8  9  1  0
  8  2  1  0
  8  3  1  0
  1 10  1  0
  2 11  1  0
  4 12  1  0
  5 13  1  0
  6 14  1  0
  7 15  1  0
  7 16  1  0
  9 17  1  0
M  END
