
     RDKit          3D

 19 21  0  0  0  0  0  0  0  0999 V2000
   -3.0168    0.3232   -0.4245 O   0  0  0  0  0  0  0  0  0  0  0  0
   -1.9390   -0.5307   -0.2750 C   0  0  0  0  0  0  0  0  0  0  0  0
   -1.3075   -0.4402    1.1554 C   0  0  0  0  0  0  0  0  0  0  0  0
   -0.0206   -0.5954    0.4217 C   0  0  0  0  0  0  0  0  0  0  0  0
   -0.6374    0.1141   -0.7802 C   0  0  0  0  0  0  0  0  0  0  0  0
    0.3392    0.7161   -1.3973 C   0  0  0  0  0  0  0  0  0  0  0  0
    1.6203    0.7771   -0.7068 C   0  0  0  0  0  0  0  0  0  0  0  0
    2.3871   -0.2696   -0.0714 C   0  0  0  0  0  0  0  0  0  0  0  0
    1.1809    0.1916    0.6814 C   0  0  0  0  0  0  0  0  0  0  0  0
   -2.8126    1.1444    0.1022 H   0  0  0  0  0  0  0  0  0  0  0  0
   -1.9963   -1.5369   -0.6563 H   0  0  0  0  0  0  0  0  0  0  0  0
   -1.6600   -1.3116    1.7275 H   0  0  0  0  0  0  0  0  0  0  0  0
   -1.4969    0.5224    1.6372 H   0  0  0  0  0  0  0  0  0  0  0  0
    0.1462   -1.6804    0.1494 H   0  0  0  0  0  0  0  0  0  0  0  0
    0.1689    1.1558   -2.4108 H   0  0  0  0  0  0  0  0  0  0  0  0
    2.0772    1.8217   -0.6444 H   0  0  0  0  0  0  0  0  0  0  0  0
    2.3810   -1.3192   -0.4078 H   0  0  0  0  0  0  0  0  0  0  0  0
    3.3479    0.0036    0.4049 H   0  0  0  0  0  0  0  0  0  0  0  0
    1.2385    0.9139    1.4948 H   0  0  0  0  0  0  0  0  0  0  0  0
  1  2  1  0
  2  3  1  0
  3  4  1  0
  4  5  1  0
  5  6  2  0
  6  7  1  0
  7  8  1  0
  8  9  1  0
  5  2  1  0
  9  7  1  0
  9  4  1  0
  1 10  1  0
  2 11  1  0
  3 12  1  0
  3 13  1  0
  4 14  1  0
  6 15  1  0
  7 16  1  0
  8 17  1  0
  8 18  1  0
  9 19  1  0
M  END
