
     RDKit          3D

 15 15  0  0  0  0  0  0  0  0999 V2000
   -2.2237    0.1633    0.0979 O   0  0  0  0  0  0  0  0  0  0  0  0
   -0.9138   -0.0314    0.4724 C   0  0  0  0  0  0  0  0  0  0  0  0
   -0.1588    1.2553    0.1121 C   0  0  0  0  0  0  0  0  0  0  0  0
    1.1154    1.1001    0.6700 O   0  0  0  0  0  0  0  0  0  0  0  0
    1.6836   -0.0122    0.0587 C   0  0  0  0  0  0  0  0  0  0  0  0
    0.8756   -0.5311   -0.9568 O   0  0  0  0  0  0  0  0  0  0  0  0
   -0.2287   -1.1339   -0.3179 C   0  0  0  0  0  0  0  0  0  0  0  0
   -2.2817    0.0001   -0.8769 H   0  0  0  0  0  0  0  0  0  0  0  0
   -0.8827   -0.2193    1.5571 H   0  0  0  0  0  0  0  0  0  0  0  0
   -0.6824    2.1455    0.4557 H   0  0  0  0  0  0  0  0  0  0  0  0
   -0.0612    1.2117   -1.0082 H   0  0  0  0  0  0  0  0  0  0  0  0
    2.6708    0.3246   -0.3414 H   0  0  0  0  0  0  0  0  0  0  0  0
    1.8065   -0.8178    0.8076 H   0  0  0  0  0  0  0  0  0  0  0  0
   -0.9143   -1.5403   -1.0645 H   0  0  0  0  0  0  0  0  0  0  0  0
    0.1954   -1.9145    0.3345 H   0  0  0  0  0  0  0  0  0  0  0  0
  1  2  1  0
  2  3  1  0
  3  4  1  0
  4  5  1  0
  5  6  1  0
  6  7  1  0
  7  2  1  0
  1  8  1  0
  2  9  1  0
  3 10  1  0
  3 11  1  0
  5 12  1  0
  5 13  1  0
  7 14  1  0
  7 15  1  0
M  END
