
     RDKit          3D

 17 19  0  0  0  0  0  0  0  0999 V2000
    2.4631   -0.2171    0.6485 O   0  0  0  0  0  0  0  0  0  0  0  0
    1.2424   -0.8057    0.3596 C   0  0  0  0  0  0  0  0  0  0  0  0
   -0.0375   -0.2393    0.8179 C   0  0  0  0  0  0  0  0  0  0  0  0
   -0.3375    1.2166    0.7624 C   0  0  0  0  0  0  0  0  0  0  0  0
    0.2605    1.3362   -0.6231 C   0  0  0  0  0  0  0  0  0  0  0  0
    0.3746   -0.1685   -0.6478 C   0  0  0  0  0  0  0  0  0  0  0  0
   -0.5465   -0.9309   -1.3149 O   0  0  0  0  0  0  0  0  0  0  0  0
   -1.4985   -1.3707   -0.4422 C   0  0  0  0  0  0  0  0  0  0  0  0
   -1.1408   -1.0725    0.8382 O   0  0  0  0  0  0  0  0  0  0  0  0
    2.6025    0.6519    0.2046 H   0  0  0  0  0  0  0  0  0  0  0  0
    1.2920   -1.9180    0.3375 H   0  0  0  0  0  0  0  0  0  0  0  0
   -1.4329    1.4660    0.7011 H   0  0  0  0  0  0  0  0  0  0  0  0
    0.1646    1.8254    1.5456 H   0  0  0  0  0  0  0  0  0  0  0  0
    1.2186    1.8917   -0.6475 H   0  0  0  0  0  0  0  0  0  0  0  0
   -0.4278    1.7341   -1.4009 H   0  0  0  0  0  0  0  0  0  0  0  0
   -1.6824   -2.4822   -0.5166 H   0  0  0  0  0  0  0  0  0  0  0  0
   -2.5145   -0.9169   -0.6224 H   0  0  0  0  0  0  0  0  0  0  0  0
  1  2  1  0
  2  3  1  0
  3  4  1  0
  4  5  1  0
  5  6  1  0
  6  7  1  0
  7  8  1  0
  8  9  1  0
  6  2  1  0
  6  3  1  0
  9  3  1  0
  1 10  1  0
  2 11  1  0
  4 12  1  0
  4 13  1  0
  5 14  1  0
  5 15  1  0
  8 16  1  0
  8 17  1  0
M  END
