
     RDKit          3D

 17 19  0  0  0  0  0  0  0  0999 V2000
    2.7052   -0.2880   -0.9842 O   0  0  0  0  0  0  0  0  0  0  0  0
    1.7461    0.2346   -0.0809 C   0  0  0  0  0  0  0  0  0  0  0  0
    0.9245   -0.6923    0.5621 C   0  0  0  0  0  0  0  0  0  0  0  0
   -0.0353   -1.7028    0.2343 C   0  0  0  0  0  0  0  0  0  0  0  0
   -1.1961   -1.0950    0.0036 C   0  0  0  0  0  0  0  0  0  0  0  0
   -0.9310    0.3933    0.1957 C   0  0  0  0  0  0  0  0  0  0  0  0
   -1.9226    1.3930    0.1542 C   0  0  0  0  0  0  0  0  0  0  0  0
   -1.2221    1.0045    1.3680 O   0  0  0  0  0  0  0  0  0  0  0  0
    0.4107    0.3785   -0.4566 C   0  0  0  0  0  0  0  0  0  0  0  0
    3.1298    0.4942   -1.4572 H   0  0  0  0  0  0  0  0  0  0  0  0
    2.2357    1.0684    0.4870 H   0  0  0  0  0  0  0  0  0  0  0  0
    0.7525   -0.4347    1.6683 H   0  0  0  0  0  0  0  0  0  0  0  0
    0.0516   -2.7940    0.1568 H   0  0  0  0  0  0  0  0  0  0  0  0
   -2.1670   -1.4699   -0.2649 H   0  0  0  0  0  0  0  0  0  0  0  0
   -3.0089    1.0968    0.1550 H   0  0  0  0  0  0  0  0  0  0  0  0
   -1.6907    2.4032   -0.2231 H   0  0  0  0  0  0  0  0  0  0  0  0
    0.2176    0.0104   -1.5184 H   0  0  0  0  0  0  0  0  0  0  0  0
  1  2  1  0
  2  3  1  0
  3  4  1  0
  4  5  2  0
  5  6  1  0
  6  7  1  0
  7  8  1  0
  6  9  1  0
  9  2  1  0
  9  3  1  0
  8  6  1  0
  1 10  1  0
  2 11  1  0
  3 12  1  0
  4 13  1  0
  5 14  1  0
  7 15  1  0
  7 16  1  0
  9 17  1  0
M  END
