
     RDKit          3D

 17 19  0  0  0  0  0  0  0  0999 V2000
    2.3067    0.1555    0.9105 O   0  0  0  0  0  0  0  0  0  0  0  0
    0.9151    0.2833    0.9032 C   0  0  0  0  0  0  0  0  0  0  0  0
    0.1917   -1.0655    0.7561 C   0  0  0  0  0  0  0  0  0  0  0  0
   -1.0944   -0.9450    1.2076 O   0  0  0  0  0  0  0  0  0  0  0  0
   -1.8331   -0.1895    0.3459 C   0  0  0  0  0  0  0  0  0  0  0  0
   -0.9533    0.1709   -0.8385 C   0  0  0  0  0  0  0  0  0  0  0  0
    0.1512   -0.7873   -0.7086 C   0  0  0  0  0  0  0  0  0  0  0  0
    0.4066    0.6292   -0.4644 C   0  0  0  0  0  0  0  0  0  0  0  0
    1.0844    1.4616   -1.3067 O   0  0  0  0  0  0  0  0  0  0  0  0
    2.6218    0.0200   -0.0212 H   0  0  0  0  0  0  0  0  0  0  0  0
    0.5383    0.8811    1.7440 H   0  0  0  0  0  0  0  0  0  0  0  0
    0.7522   -1.9291    1.1065 H   0  0  0  0  0  0  0  0  0  0  0  0
   -2.7546   -0.7155   -0.0187 H   0  0  0  0  0  0  0  0  0  0  0  0
   -2.2052    0.7100    0.8796 H   0  0  0  0  0  0  0  0  0  0  0  0
   -1.3759    0.3482   -1.8184 H   0  0  0  0  0  0  0  0  0  0  0  0
    0.5654   -1.4096   -1.4680 H   0  0  0  0  0  0  0  0  0  0  0  0
    0.6829    2.3817   -1.2089 H   0  0  0  0  0  0  0  0  0  0  0  0
  1  2  1  0
  2  3  1  0
  3  4  1  0
  4  5  1  0
  5  6  1  0
  6  7  1  0
  7  8  1  0
  8  9  1  0
  8  2  1  0
  7  3  1  0
  8  6  1  0
  1 10  1  0
  2 11  1  0
  3 12  1  0
  5 13  1  0
  5 14  1  0
  6 15  1  0
  7 16  1  0
  9 17  1  0
M  END
