
     RDKit          3D

 18 20  0  0  0  0  0  0  0  0999 V2000
    2.8469   -0.6821   -0.1777 O   0  0  0  0  0  0  0  0  0  0  0  0
    1.5597   -0.4562    0.3501 C   0  0  0  0  0  0  0  0  0  0  0  0
    0.4574   -0.9092   -0.5063 C   0  0  0  0  0  0  0  0  0  0  0  0
   -0.9739   -0.8649   -0.0567 C   0  0  0  0  0  0  0  0  0  0  0  0
   -1.0349    0.0512    1.1497 C   0  0  0  0  0  0  0  0  0  0  0  0
   -0.5260    1.0948    0.1503 C   0  0  0  0  0  0  0  0  0  0  0  0
   -1.4736    0.3722   -0.8209 C   0  0  0  0  0  0  0  0  0  0  0  0
    0.8032    0.6123   -0.3164 C   0  0  0  0  0  0  0  0  0  0  0  0
    3.4215    0.0206    0.2658 H   0  0  0  0  0  0  0  0  0  0  0  0
    1.5384   -0.6119    1.4453 H   0  0  0  0  0  0  0  0  0  0  0  0
    0.6044   -1.2697   -1.5304 H   0  0  0  0  0  0  0  0  0  0  0  0
   -1.5790   -1.7333   -0.0817 H   0  0  0  0  0  0  0  0  0  0  0  0
   -2.0929    0.2673    1.3949 H   0  0  0  0  0  0  0  0  0  0  0  0
   -0.3795   -0.1735    1.9773 H   0  0  0  0  0  0  0  0  0  0  0  0
   -0.7143    2.1152    0.3526 H   0  0  0  0  0  0  0  0  0  0  0  0
   -1.1788    0.4149   -1.8675 H   0  0  0  0  0  0  0  0  0  0  0  0
   -2.5059    0.6273   -0.5536 H   0  0  0  0  0  0  0  0  0  0  0  0
    1.2273    1.1252   -1.1748 H   0  0  0  0  0  0  0  0  0  0  0  0
  1  2  1  0
  2  3  1  0
  3  4  1  0
  4  5  1  0
  5  6  1  0
  6  7  1  0
  6  8  1  0
  8  2  1  0
  8  3  1  0
  7  4  1  0
  1  9  1  0
  2 10  1  0
  3 11  1  0
  4 12  1  0
  5 13  1  0
  5 14  1  0
  6 15  1  0
  7 16  1  0
  7 17  1  0
  8 18  1  0
M  END
