
     RDKit          3D

 19 20  0  0  0  0  0  0  0  0999 V2000
    3.0069    0.0394   -0.7403 O   0  0  0  0  0  0  0  0  0  0  0  0
    1.8927    0.3144    0.0089 C   0  0  0  0  0  0  0  0  0  0  0  0
    0.9871    1.3085   -0.6445 C   0  0  0  0  0  0  0  0  0  0  0  0
   -0.2787    1.0311   -0.4370 C   0  0  0  0  0  0  0  0  0  0  0  0
   -1.7512    0.9488   -0.3578 C   0  0  0  0  0  0  0  0  0  0  0  0
   -1.5186   -0.5779   -0.4098 C   0  0  0  0  0  0  0  0  0  0  0  0
   -2.4945   -1.3212    0.1853 O   0  0  0  0  0  0  0  0  0  0  0  0
   -0.3214   -0.2171    0.4379 C   0  0  0  0  0  0  0  0  0  0  0  0
    0.9777   -0.9146    0.1092 C   0  0  0  0  0  0  0  0  0  0  0  0
    3.2476   -0.9214   -0.6459 H   0  0  0  0  0  0  0  0  0  0  0  0
    2.0925    0.6480    1.0380 H   0  0  0  0  0  0  0  0  0  0  0  0
    1.3968    2.1571   -1.2217 H   0  0  0  0  0  0  0  0  0  0  0  0
   -2.0982    1.1939    0.6690 H   0  0  0  0  0  0  0  0  0  0  0  0
   -2.3273    1.3400   -1.1903 H   0  0  0  0  0  0  0  0  0  0  0  0
   -1.2034   -0.8492   -1.4267 H   0  0  0  0  0  0  0  0  0  0  0  0
   -3.3664   -1.1792   -0.2776 H   0  0  0  0  0  0  0  0  0  0  0  0
   -0.5109   -0.0093    1.4933 H   0  0  0  0  0  0  0  0  0  0  0  0
    0.9340   -1.4784   -0.8195 H   0  0  0  0  0  0  0  0  0  0  0  0
    1.3352   -1.5129    0.9710 H   0  0  0  0  0  0  0  0  0  0  0  0
  1  2  1  0
  2  3  1  0
  3  4  2  0
  4  5  1  0
  5  6  1  0
  6  7  1  0
  6  8  1  0
  8  9  1  0
  9  2  1  0
  8  4  1  0
  1 10  1  0
  2 11  1  0
  3 12  1  0
  5 13  1  0
  5 14  1  0
  6 15  1  0
  7 16  1  0
  8 17  1  0
  9 18  1  0
  9 19  1  0
M  END
