
     RDKit          3D

 21 22  0  0  0  0  0  0  0  0999 V2000
   -1.1992   -0.5073    1.4520 O   0  0  0  0  0  0  0  0  0  0  0  0
   -1.4853   -0.5014    0.0930 C   0  0  0  0  0  0  0  0  0  0  0  0
   -1.6130    0.8654   -0.5372 C   0  0  0  0  0  0  0  0  0  0  0  0
   -0.1320    0.7926   -0.8583 C   0  0  0  0  0  0  0  0  0  0  0  0
    0.7901    1.4363    0.0980 C   0  0  0  0  0  0  0  0  0  0  0  0
    1.1391    0.6791    1.1932 O   0  0  0  0  0  0  0  0  0  0  0  0
    1.7353   -0.4940    0.7921 C   0  0  0  0  0  0  0  0  0  0  0  0
    0.8958   -1.3626   -0.0741 C   0  0  0  0  0  0  0  0  0  0  0  0
   -0.2289   -0.6940   -0.7620 C   0  0  0  0  0  0  0  0  0  0  0  0
   -1.9360   -0.1654    1.9800 H   0  0  0  0  0  0  0  0  0  0  0  0
   -2.2814   -1.2184   -0.1252 H   0  0  0  0  0  0  0  0  0  0  0  0
   -2.2336    0.7684   -1.4681 H   0  0  0  0  0  0  0  0  0  0  0  0
   -1.9003    1.6868    0.1234 H   0  0  0  0  0  0  0  0  0  0  0  0
    0.0341    1.1828   -1.8988 H   0  0  0  0  0  0  0  0  0  0  0  0
    0.4371    2.4278    0.4908 H   0  0  0  0  0  0  0  0  0  0  0  0
    1.7483    1.6726   -0.4456 H   0  0  0  0  0  0  0  0  0  0  0  0
    2.7016   -0.3002    0.2664 H   0  0  0  0  0  0  0  0  0  0  0  0
    2.0223   -1.0482    1.7232 H   0  0  0  0  0  0  0  0  0  0  0  0
    1.5201   -1.9013   -0.8381 H   0  0  0  0  0  0  0  0  0  0  0  0
    0.4641   -2.1909    0.5614 H   0  0  0  0  0  0  0  0  0  0  0  0
   -0.4783   -1.1283   -1.7662 H   0  0  0  0  0  0  0  0  0  0  0  0
  1  2  1  0
  2  3  1  0
  3  4  1  0
  4  5  1  0
  5  6  1  0
  6  7  1  0
  7  8  1  0
  8  9  1  0
  9  2  1  0
  9  4  1  0
  1 10  1  0
  2 11  1  0
  3 12  1  0
  3 13  1  0
  4 14  1  0
  5 15  1  0
  5 16  1  0
  7 17  1  0
  7 18  1  0
  8 19  1  0
  8 20  1  0
  9 21  1  0
M  END
