
     RDKit          3D

 19 20  0  0  0  0  0  0  0  0999 V2000
    2.1209   -1.5120    0.3586 O   0  0  0  0  0  0  0  0  0  0  0  0
    1.3319   -0.4828   -0.2035 C   0  0  0  0  0  0  0  0  0  0  0  0
    1.0694    0.4795    0.9025 C   0  0  0  0  0  0  0  0  0  0  0  0
    0.1413    1.4054    0.7008 C   0  0  0  0  0  0  0  0  0  0  0  0
   -0.5429    1.3716   -0.6377 C   0  0  0  0  0  0  0  0  0  0  0  0
   -1.0645   -0.0358   -0.8113 C   0  0  0  0  0  0  0  0  0  0  0  0
   -1.6535   -0.6412    0.4464 C   0  0  0  0  0  0  0  0  0  0  0  0
   -0.6306   -1.5932    0.5249 O   0  0  0  0  0  0  0  0  0  0  0  0
   -0.0018   -1.0621   -0.6094 C   0  0  0  0  0  0  0  0  0  0  0  0
    2.9646   -1.0699    0.6379 H   0  0  0  0  0  0  0  0  0  0  0  0
    1.8604    0.0011   -1.0474 H   0  0  0  0  0  0  0  0  0  0  0  0
    1.5843    0.4688    1.8499 H   0  0  0  0  0  0  0  0  0  0  0  0
   -0.0862    2.1219    1.4643 H   0  0  0  0  0  0  0  0  0  0  0  0
    0.2235    1.5578   -1.4288 H   0  0  0  0  0  0  0  0  0  0  0  0
   -1.3740    2.0888   -0.6821 H   0  0  0  0  0  0  0  0  0  0  0  0
   -1.7427   -0.1654   -1.6690 H   0  0  0  0  0  0  0  0  0  0  0  0
   -2.6211   -1.1667    0.3092 H   0  0  0  0  0  0  0  0  0  0  0  0
   -1.6326    0.0871    1.2894 H   0  0  0  0  0  0  0  0  0  0  0  0
    0.0536   -1.8530   -1.3949 H   0  0  0  0  0  0  0  0  0  0  0  0
  1  2  1  0
  2  3  1  0
  3  4  2  0
  4  5  1  0
  5  6  1  0
  6  7  1  0
  7  8  1  0
  8  9  1  0
  9  2  1  0
  9  6  1  0
  1 10  1  0
  2 11  1  0
  3 12  1  0
  4 13  1  0
  5 14  1  0
  5 15  1  0
  6 16  1  0
  7 17  1  0
  7 18  1  0
  9 19  1  0
M  END
