
     RDKit          3D

 17 19  0  0  0  0  0  0  0  0999 V2000
    1.3992    0.3004    1.1028 O   0  0  0  0  0  0  0  0  0  0  0  0
    1.6063   -0.2509   -0.1301 C   0  0  0  0  0  0  0  0  0  0  0  0
    1.0395    0.4401   -1.3236 C   0  0  0  0  0  0  0  0  0  0  0  0
    1.1369   -0.7985   -1.9586 O   0  0  0  0  0  0  0  0  0  0  0  0
    0.5998   -1.1500   -0.7216 C   0  0  0  0  0  0  0  0  0  0  0  0
   -0.3079    0.0225   -0.9094 C   0  0  0  0  0  0  0  0  0  0  0  0
   -0.9458    0.6201    0.2880 C   0  0  0  0  0  0  0  0  0  0  0  0
   -2.3549    0.1044    0.5935 C   0  0  0  0  0  0  0  0  0  0  0  0
   -1.1559   -0.1557    1.4246 O   0  0  0  0  0  0  0  0  0  0  0  0
    2.2763    0.6254    1.4496 H   0  0  0  0  0  0  0  0  0  0  0  0
    2.6508   -0.5882   -0.3450 H   0  0  0  0  0  0  0  0  0  0  0  0
    1.3405    1.3187   -1.7200 H   0  0  0  0  0  0  0  0  0  0  0  0
    0.3340   -2.0831   -0.4427 H   0  0  0  0  0  0  0  0  0  0  0  0
   -0.9889   -0.1146   -1.7947 H   0  0  0  0  0  0  0  0  0  0  0  0
   -0.8674    1.7264    0.4011 H   0  0  0  0  0  0  0  0  0  0  0  0
   -2.6901   -0.8140    0.1025 H   0  0  0  0  0  0  0  0  0  0  0  0
   -3.0723    0.7969    1.0780 H   0  0  0  0  0  0  0  0  0  0  0  0
  1  2  1  0
  2  3  1  0
  3  4  1  0
  4  5  1  0
  5  6  1  0
  6  7  1  0
  7  8  1  0
  8  9  1  0
  5  2  1  0
  9  7  1  0
  6  3  1  0
  1 10  1  0
  2 11  1  0
  3 12  1  0
  5 13  1  0
  6 14  1  0
  7 15  1  0
  8 16  1  0
  8 17  1  0
M  END
