
     RDKit          3D

 21 23  0  0  0  0  0  0  0  0999 V2000
   -1.1775   -0.9135   -1.6803 O   0  0  0  0  0  0  0  0  0  0  0  0
   -1.2960   -0.7187   -0.3078 C   0  0  0  0  0  0  0  0  0  0  0  0
   -1.5121    0.7424   -0.0444 C   0  0  0  0  0  0  0  0  0  0  0  0
   -0.2761    1.5668   -0.0854 C   0  0  0  0  0  0  0  0  0  0  0  0
    0.9305    0.9106    0.5145 C   0  0  0  0  0  0  0  0  0  0  0  0
    1.7761    0.1556   -0.4644 C   0  0  0  0  0  0  0  0  0  0  0  0
    1.2487   -1.1477    0.0361 C   0  0  0  0  0  0  0  0  0  0  0  0
   -0.1651   -1.3188    0.4564 C   0  0  0  0  0  0  0  0  0  0  0  0
    0.6498   -0.3619    1.2322 C   0  0  0  0  0  0  0  0  0  0  0  0
   -1.8412   -1.5619   -2.0253 H   0  0  0  0  0  0  0  0  0  0  0  0
   -2.2476   -1.2401    0.0077 H   0  0  0  0  0  0  0  0  0  0  0  0
   -2.1999    1.1181   -0.8431 H   0  0  0  0  0  0  0  0  0  0  0  0
   -2.0599    0.8881    0.9093 H   0  0  0  0  0  0  0  0  0  0  0  0
    0.0002    1.8769   -1.1268 H   0  0  0  0  0  0  0  0  0  0  0  0
   -0.4914    2.5176    0.4846 H   0  0  0  0  0  0  0  0  0  0  0  0
    1.5090    1.6184    1.1774 H   0  0  0  0  0  0  0  0  0  0  0  0
    1.6036    0.3796   -1.5376 H   0  0  0  0  0  0  0  0  0  0  0  0
    2.8613    0.2786   -0.1927 H   0  0  0  0  0  0  0  0  0  0  0  0
    1.9978   -1.9277    0.2808 H   0  0  0  0  0  0  0  0  0  0  0  0
   -0.3602   -2.2945    0.9815 H   0  0  0  0  0  0  0  0  0  0  0  0
    1.0501   -0.5679    2.2271 H   0  0  0  0  0  0  0  0  0  0  0  0
  1  2  1  0
  2  3  1  0
  3  4  1  0
  4  5  1  0
  5  6  1  0
  6  7  1  0
  7  8  1  0
  8  9  1  0
  8  2  1  0
  9  5  1  0
  9  7  1  0
  1 10  1  0
  2 11  1  0
  3 12  1  0
  3 13  1  0
  4 14  1  0
  4 15  1  0
  5 16  1  0
  6 17  1  0
  6 18  1  0
  7 19  1  0
  8 20  1  0
  9 21  1  0
M  END
