
     RDKit          3D

 17 19  0  0  0  0  0  0  0  0999 V2000
   -0.7499    2.0395    0.3407 O   0  0  0  0  0  0  0  0  0  0  0  0
   -0.0465    0.9025    0.7595 C   0  0  0  0  0  0  0  0  0  0  0  0
    1.2758    0.9112    0.1346 C   0  0  0  0  0  0  0  0  0  0  0  0
    1.3962   -0.0474   -0.7428 C   0  0  0  0  0  0  0  0  0  0  0  0
    0.1680   -0.8399   -0.8331 C   0  0  0  0  0  0  0  0  0  0  0  0
   -1.1420   -0.2077   -1.2288 C   0  0  0  0  0  0  0  0  0  0  0  0
   -0.7776   -0.2922    0.2048 C   0  0  0  0  0  0  0  0  0  0  0  0
   -0.4747   -1.5922    0.8781 C   0  0  0  0  0  0  0  0  0  0  0  0
    0.1117   -2.1146   -0.2774 O   0  0  0  0  0  0  0  0  0  0  0  0
   -0.2045    2.8419    0.3561 H   0  0  0  0  0  0  0  0  0  0  0  0
    0.0435    0.8699    1.8702 H   0  0  0  0  0  0  0  0  0  0  0  0
    2.0645    1.6200    0.3635 H   0  0  0  0  0  0  0  0  0  0  0  0
    2.2808   -0.2708   -1.3567 H   0  0  0  0  0  0  0  0  0  0  0  0
   -1.0360    0.7556   -1.7359 H   0  0  0  0  0  0  0  0  0  0  0  0
   -1.8860   -0.8845   -1.6743 H   0  0  0  0  0  0  0  0  0  0  0  0
    0.3118   -1.5417    1.6721 H   0  0  0  0  0  0  0  0  0  0  0  0
   -1.3354   -2.1498    1.2691 H   0  0  0  0  0  0  0  0  0  0  0  0
  1  2  1  0
  2  3  1  0
  3  4  2  0
  4  5  1  0
  5  6  1  0
  6  7  1  0
  7  8  1  0
  8  9  1  0
  7  2  1  0
  7  5  1  0
  9  5  1  0
  1 10  1  0
  2 11  1  0
  3 12  1  0
  4 13  1  0
  6 14  1  0
  6 15  1  0
  8 16  1  0
  8 17  1  0
M  END
