
     RDKit          3D

 19 20  0  0  0  0  0  0  0  0999 V2000
    0.9448    1.7151   -0.7547 O   0  0  0  0  0  0  0  0  0  0  0  0
    1.1595    0.9773    0.3994 C   0  0  0  0  0  0  0  0  0  0  0  0
    1.5217   -0.4324    0.2355 C   0  0  0  0  0  0  0  0  0  0  0  0
    1.4082   -0.9919   -1.0374 O   0  0  0  0  0  0  0  0  0  0  0  0
    0.1968    0.0085    0.9291 C   0  0  0  0  0  0  0  0  0  0  0  0
    0.2543   -0.1372    2.3456 O   0  0  0  0  0  0  0  0  0  0  0  0
   -1.0175   -0.4944    0.2363 C   0  0  0  0  0  0  0  0  0  0  0  0
   -2.0958    0.4097   -0.2263 C   0  0  0  0  0  0  0  0  0  0  0  0
   -1.1669   -0.2636   -1.2144 C   0  0  0  0  0  0  0  0  0  0  0  0
    1.7414    1.7927   -1.3190 H   0  0  0  0  0  0  0  0  0  0  0  0
    1.7928    1.5503    1.1260 H   0  0  0  0  0  0  0  0  0  0  0  0
    2.2635   -0.9451    0.8666 H   0  0  0  0  0  0  0  0  0  0  0  0
    0.7824   -1.7739   -0.9246 H   0  0  0  0  0  0  0  0  0  0  0  0
    0.9355   -0.7902    2.5992 H   0  0  0  0  0  0  0  0  0  0  0  0
   -1.3943   -1.4602    0.6469 H   0  0  0  0  0  0  0  0  0  0  0  0
   -3.1348    0.0451   -0.2536 H   0  0  0  0  0  0  0  0  0  0  0  0
   -2.0100    1.4889   -0.0532 H   0  0  0  0  0  0  0  0  0  0  0  0
   -1.5821   -1.1434   -1.7880 H   0  0  0  0  0  0  0  0  0  0  0  0
   -0.5994    0.4448   -1.8132 H   0  0  0  0  0  0  0  0  0  0  0  0
  1  2  1  0
  2  3  1  0
  3  4  1  0
  3  5  1  0
  5  6  1  0
  5  7  1  0
  7  8  1  0
  8  9  1  0
  5  2  1  0
  9  7  1  0
  1 10  1  0
  2 11  1  0
  3 12  1  0
  4 13  1  0
  6 14  1  0
  7 15  1  0
  8 16  1  0
  8 17  1  0
  9 18  1  0
  9 19  1  0
M  END
