
     RDKit          3D

 21 22  0  0  0  0  0  0  0  0999 V2000
    2.7485   -0.4545   -0.2347 O   0  0  0  0  0  0  0  0  0  0  0  0
    1.3960   -0.6790   -0.4475 C   0  0  0  0  0  0  0  0  0  0  0  0
    0.6622   -1.0362    0.8267 C   0  0  0  0  0  0  0  0  0  0  0  0
   -0.6166   -0.2674    0.8419 C   0  0  0  0  0  0  0  0  0  0  0  0
   -1.6871   -0.6907   -0.1023 C   0  0  0  0  0  0  0  0  0  0  0  0
   -1.6793    0.7152   -0.6842 C   0  0  0  0  0  0  0  0  0  0  0  0
   -0.3477    0.9267   -0.0238 C   0  0  0  0  0  0  0  0  0  0  0  0
   -0.2082    2.0626    0.7410 O   0  0  0  0  0  0  0  0  0  0  0  0
    0.7735    0.5882   -0.9525 C   0  0  0  0  0  0  0  0  0  0  0  0
    2.9349   -0.2278    0.7042 H   0  0  0  0  0  0  0  0  0  0  0  0
    1.2845   -1.5348   -1.1617 H   0  0  0  0  0  0  0  0  0  0  0  0
    0.5433   -2.1230    0.9188 H   0  0  0  0  0  0  0  0  0  0  0  0
    1.2913   -0.6554    1.6687 H   0  0  0  0  0  0  0  0  0  0  0  0
   -0.9885   -0.0067    1.8551 H   0  0  0  0  0  0  0  0  0  0  0  0
   -2.6618   -0.9110    0.3980 H   0  0  0  0  0  0  0  0  0  0  0  0
   -1.3452   -1.4583   -0.8102 H   0  0  0  0  0  0  0  0  0  0  0  0
   -2.5001    1.3618   -0.3912 H   0  0  0  0  0  0  0  0  0  0  0  0
   -1.6186    0.6568   -1.8008 H   0  0  0  0  0  0  0  0  0  0  0  0
    0.1345    1.8234    1.6577 H   0  0  0  0  0  0  0  0  0  0  0  0
    0.4111    0.4638   -2.0133 H   0  0  0  0  0  0  0  0  0  0  0  0
    1.4734    1.4462   -0.9901 H   0  0  0  0  0  0  0  0  0  0  0  0
  1  2  1  0
  2  3  1  0
  3  4  1  0
  4  5  1  0
  5  6  1  0
  6  7  1  0
  7  8  1  0
  7  9  1  0
  9  2  1  0
  7  4  1  0
  1 10  1  0
  2 11  1  0
  3 12  1  0
  3 13  1  0
  4 14  1  0
  5 15  1  0
  5 16  1  0
  6 17  1  0
  6 18  1  0
  8 19  1  0
  9 20  1  0
  9 21  1  0
M  END
