
     RDKit          3D

 17 19  0  0  0  0  0  0  0  0999 V2000
    2.6217    0.1803   -0.6061 O   0  0  0  0  0  0  0  0  0  0  0  0
    1.3081    0.5230   -0.3210 C   0  0  0  0  0  0  0  0  0  0  0  0
    0.2687   -0.0635   -1.1841 C   0  0  0  0  0  0  0  0  0  0  0  0
   -1.1930    0.0611   -0.8163 C   0  0  0  0  0  0  0  0  0  0  0  0
   -1.5080    1.0782    0.2030 C   0  0  0  0  0  0  0  0  0  0  0  0
   -0.9217   -0.1975    0.6191 C   0  0  0  0  0  0  0  0  0  0  0  0
   -1.6693   -1.0618    1.3740 O   0  0  0  0  0  0  0  0  0  0  0  0
    0.4780   -0.5654    0.2302 C   0  0  0  0  0  0  0  0  0  0  0  0
    0.9404   -1.8508    0.3955 O   0  0  0  0  0  0  0  0  0  0  0  0
    3.2494    0.9303   -0.5828 H   0  0  0  0  0  0  0  0  0  0  0  0
    1.1766    1.5556    0.0697 H   0  0  0  0  0  0  0  0  0  0  0  0
    0.4917   -0.7006   -2.0364 H   0  0  0  0  0  0  0  0  0  0  0  0
   -1.9299   -0.5065   -1.3740 H   0  0  0  0  0  0  0  0  0  0  0  0
   -0.8468    1.9708    0.2162 H   0  0  0  0  0  0  0  0  0  0  0  0
   -2.5654    1.2721    0.3783 H   0  0  0  0  0  0  0  0  0  0  0  0
   -1.5410   -0.7890    2.3391 H   0  0  0  0  0  0  0  0  0  0  0  0
    1.6406   -1.8362    1.0956 H   0  0  0  0  0  0  0  0  0  0  0  0
  1  2  1  0
  2  3  1  0
  3  4  1  0
  4  5  1  0
  5  6  1  0
  6  7  1  0
  6  8  1  0
  8  9  1  0
  8  2  1  0
  8  3  1  0
  6  4  1  0
  1 10  1  0
  2 11  1  0
  3 12  1  0
  4 13  1  0
  5 14  1  0
  5 15  1  0
  7 16  1  0
  9 17  1  0
M  END
