
     RDKit          3D

 21 23  0  0  0  0  0  0  0  0999 V2000
   -2.6628    1.2508    0.0024 O   0  0  0  0  0  0  0  0  0  0  0  0
   -2.0667    0.0244   -0.3260 C   0  0  0  0  0  0  0  0  0  0  0  0
   -1.7286   -0.8274    0.8376 C   0  0  0  0  0  0  0  0  0  0  0  0
   -0.6514   -0.1824    0.0854 C   0  0  0  0  0  0  0  0  0  0  0  0
    0.2737   -1.0524   -0.7135 C   0  0  0  0  0  0  0  0  0  0  0  0
    1.5168   -0.2629   -0.8991 C   0  0  0  0  0  0  0  0  0  0  0  0
    2.4406   -0.2477    0.3095 C   0  0  0  0  0  0  0  0  0  0  0  0
    1.5275    0.8722    0.0686 C   0  0  0  0  0  0  0  0  0  0  0  0
    0.1596    0.9599    0.6321 C   0  0  0  0  0  0  0  0  0  0  0  0
   -2.3456    1.9929   -0.5502 H   0  0  0  0  0  0  0  0  0  0  0  0
   -2.4421   -0.4030   -1.2703 H   0  0  0  0  0  0  0  0  0  0  0  0
   -1.8468   -1.9191    0.6966 H   0  0  0  0  0  0  0  0  0  0  0  0
   -1.9318   -0.4824    1.8667 H   0  0  0  0  0  0  0  0  0  0  0  0
    0.4621   -1.9712   -0.0989 H   0  0  0  0  0  0  0  0  0  0  0  0
   -0.2097   -1.3853   -1.6592 H   0  0  0  0  0  0  0  0  0  0  0  0
    1.9238   -0.0246   -1.8950 H   0  0  0  0  0  0  0  0  0  0  0  0
    3.4961   -0.1201    0.0303 H   0  0  0  0  0  0  0  0  0  0  0  0
    2.2754   -1.0024    1.1144 H   0  0  0  0  0  0  0  0  0  0  0  0
    1.9995    1.8507   -0.2087 H   0  0  0  0  0  0  0  0  0  0  0  0
    0.1380    1.0294    1.7367 H   0  0  0  0  0  0  0  0  0  0  0  0
   -0.3278    1.9006    0.2407 H   0  0  0  0  0  0  0  0  0  0  0  0
  1  2  1  0
  2  3  1  0
  3  4  1  0
  4  5  1  0
  5  6  1  0
  6  7  1  0
  7  8  1  0
  8  9  1  0
  4  2  1  0
  8  6  1  0
  9  4  1  0
  1 10  1  0
  2 11  1  0
  3 12  1  0
  3 13  1  0
  5 14  1  0
  5 15  1  0
  6 16  1  0
  7 17  1  0
  7 18  1  0
  8 19  1  0
  9 20  1  0
  9 21  1  0
M  END
