
     RDKit          3D

 17 19  0  0  0  0  0  0  0  0999 V2000
    2.9369   -0.2156    0.3103 O   0  0  0  0  0  0  0  0  0  0  0  0
    1.6907   -0.0368   -0.3158 C   0  0  0  0  0  0  0  0  0  0  0  0
    0.5931   -0.8386    0.2640 C   0  0  0  0  0  0  0  0  0  0  0  0
    0.6630    0.7043    0.4516 C   0  0  0  0  0  0  0  0  0  0  0  0
   -0.7408    0.7494   -0.0808 C   0  0  0  0  0  0  0  0  0  0  0  0
   -1.0581    1.5842   -1.1334 O   0  0  0  0  0  0  0  0  0  0  0  0
   -1.7773    0.0442    0.7088 C   0  0  0  0  0  0  0  0  0  0  0  0
   -0.8230   -0.7105   -0.1644 C   0  0  0  0  0  0  0  0  0  0  0  0
   -1.3176   -1.3836   -1.2633 O   0  0  0  0  0  0  0  0  0  0  0  0
    3.6787   -0.1485   -0.3229 H   0  0  0  0  0  0  0  0  0  0  0  0
    1.7557    0.1931   -1.3906 H   0  0  0  0  0  0  0  0  0  0  0  0
    0.7693   -1.4139    1.1788 H   0  0  0  0  0  0  0  0  0  0  0  0
    0.8737    1.0659    1.4766 H   0  0  0  0  0  0  0  0  0  0  0  0
   -1.1158    2.5235   -0.8104 H   0  0  0  0  0  0  0  0  0  0  0  0
   -2.8121    0.1004    0.3038 H   0  0  0  0  0  0  0  0  0  0  0  0
   -1.6202    0.0413    1.8079 H   0  0  0  0  0  0  0  0  0  0  0  0
   -1.6960   -2.2589   -0.9583 H   0  0  0  0  0  0  0  0  0  0  0  0
  1  2  1  0
  2  3  1  0
  3  4  1  0
  4  5  1  0
  5  6  1  0
  5  7  1  0
  7  8  1  0
  8  9  1  0
  4  2  1  0
  8  5  1  0
  8  3  1  0
  1 10  1  0
  2 11  1  0
  3 12  1  0
  4 13  1  0
  6 14  1  0
  7 15  1  0
  7 16  1  0
  9 17  1  0
M  END
