
     RDKit          3D

 19 21  0  0  0  0  0  0  0  0999 V2000
    2.5638   -0.3864    0.7063 O   0  0  0  0  0  0  0  0  0  0  0  0
    1.6998   -0.7407   -0.3242 C   0  0  0  0  0  0  0  0  0  0  0  0
    1.2084    0.4567   -1.1995 C   0  0  0  0  0  0  0  0  0  0  0  0
    0.3394   -0.2474   -0.2732 C   0  0  0  0  0  0  0  0  0  0  0  0
   -0.1570    0.4065    1.0221 C   0  0  0  0  0  0  0  0  0  0  0  0
   -1.6855    0.4498    0.8364 C   0  0  0  0  0  0  0  0  0  0  0  0
   -1.7825    0.2621   -0.6324 C   0  0  0  0  0  0  0  0  0  0  0  0
   -1.9053   -0.7758   -1.4123 O   0  0  0  0  0  0  0  0  0  0  0  0
   -0.8745   -1.0109   -0.6436 C   0  0  0  0  0  0  0  0  0  0  0  0
    2.1003   -0.0401    1.5056 H   0  0  0  0  0  0  0  0  0  0  0  0
    2.0075   -1.6469   -0.8661 H   0  0  0  0  0  0  0  0  0  0  0  0
    1.1210    0.2113   -2.2748 H   0  0  0  0  0  0  0  0  0  0  0  0
    1.6950    1.4153   -0.9924 H   0  0  0  0  0  0  0  0  0  0  0  0
    0.0484   -0.3267    1.8203 H   0  0  0  0  0  0  0  0  0  0  0  0
    0.2671    1.3926    1.1807 H   0  0  0  0  0  0  0  0  0  0  0  0
   -1.9843    1.4821    1.1055 H   0  0  0  0  0  0  0  0  0  0  0  0
   -2.1931   -0.2922    1.4507 H   0  0  0  0  0  0  0  0  0  0  0  0
   -1.3583    1.1638   -1.1746 H   0  0  0  0  0  0  0  0  0  0  0  0
   -1.1101   -1.7730    0.1654 H   0  0  0  0  0  0  0  0  0  0  0  0
  1  2  1  0
  2  3  1  0
  3  4  1  0
  4  5  1  0
  5  6  1  0
  6  7  1  0
  7  8  1  0
  8  9  1  0
  4  2  1  0
  9  7  1  0
  9  4  1  0
  1 10  1  0
  2 11  1  0
  3 12  1  0
  3 13  1  0
  5 14  1  0
  5 15  1  0
  6 16  1  0
  6 17  1  0
  7 18  1  0
  9 19  1  0
M  END
