
     RDKit          3D

 17 19  0  0  0  0  0  0  0  0999 V2000
    2.4007    0.4376    0.3125 O   0  0  0  0  0  0  0  0  0  0  0  0
    1.2805    0.4540   -0.4891 C   0  0  0  0  0  0  0  0  0  0  0  0
    0.0670    0.9356    0.2504 C   0  0  0  0  0  0  0  0  0  0  0  0
    0.2044   -0.3041    1.0799 C   0  0  0  0  0  0  0  0  0  0  0  0
   -1.1908   -0.7204    1.3460 C   0  0  0  0  0  0  0  0  0  0  0  0
   -1.7995   -0.4919    0.1613 C   0  0  0  0  0  0  0  0  0  0  0  0
   -0.7284    0.0617   -0.6685 C   0  0  0  0  0  0  0  0  0  0  0  0
   -0.9407    0.4200   -1.9306 O   0  0  0  0  0  0  0  0  0  0  0  0
    0.4614   -0.7875   -0.3143 C   0  0  0  0  0  0  0  0  0  0  0  0
    3.0788   -0.1975   -0.0335 H   0  0  0  0  0  0  0  0  0  0  0  0
    1.3809    0.8550   -1.4946 H   0  0  0  0  0  0  0  0  0  0  0  0
   -0.1396    1.8642    0.5561 H   0  0  0  0  0  0  0  0  0  0  0  0
    0.9467   -0.3802    1.8305 H   0  0  0  0  0  0  0  0  0  0  0  0
   -1.6176   -1.1099    2.2593 H   0  0  0  0  0  0  0  0  0  0  0  0
   -2.8249   -0.6636   -0.1371 H   0  0  0  0  0  0  0  0  0  0  0  0
   -1.2420    1.3419   -2.1063 H   0  0  0  0  0  0  0  0  0  0  0  0
    0.6631   -1.7148   -0.6220 H   0  0  0  0  0  0  0  0  0  0  0  0
  1  2  1  0
  2  3  1  0
  3  4  1  0
  4  5  1  0
  5  6  2  0
  6  7  1  0
  7  8  1  0
  7  9  1  0
  9  2  1  0
  7  3  1  0
  9  4  1  0
  1 10  1  0
  2 11  1  0
  3 12  1  0
  4 13  1  0
  5 14  1  0
  6 15  1  0
  8 16  1  0
  9 17  1  0
M  END
