
     RDKit          3D

 21 22  0  0  0  0  0  0  0  0999 V2000
    2.7206   -0.8146    0.2023 O   0  0  0  0  0  0  0  0  0  0  0  0
    1.7079   -0.1994   -0.5305 C   0  0  0  0  0  0  0  0  0  0  0  0
    1.5132    1.1957   -0.0927 C   0  0  0  0  0  0  0  0  0  0  0  0
    0.5662    1.6138    0.7169 C   0  0  0  0  0  0  0  0  0  0  0  0
   -0.3937    0.6053    1.2406 C   0  0  0  0  0  0  0  0  0  0  0  0
   -0.7322   -0.2881    0.0629 C   0  0  0  0  0  0  0  0  0  0  0  0
   -2.0508   -0.9089   -0.0707 C   0  0  0  0  0  0  0  0  0  0  0  0
   -1.7364    0.3148   -0.8843 C   0  0  0  0  0  0  0  0  0  0  0  0
    0.4530   -1.0245   -0.4482 C   0  0  0  0  0  0  0  0  0  0  0  0
    2.3155   -1.4029    0.9105 H   0  0  0  0  0  0  0  0  0  0  0  0
    2.0233   -0.1787   -1.5946 H   0  0  0  0  0  0  0  0  0  0  0  0
    2.2198    1.9408   -0.4777 H   0  0  0  0  0  0  0  0  0  0  0  0
    0.4856    2.6562    0.9944 H   0  0  0  0  0  0  0  0  0  0  0  0
   -1.2855    1.0970    1.6219 H   0  0  0  0  0  0  0  0  0  0  0  0
    0.0854    0.0143    2.0683 H   0  0  0  0  0  0  0  0  0  0  0  0
   -2.8254   -0.8647    0.7081 H   0  0  0  0  0  0  0  0  0  0  0  0
   -2.0991   -1.8428   -0.6850 H   0  0  0  0  0  0  0  0  0  0  0  0
   -2.2962    1.2249   -0.5595 H   0  0  0  0  0  0  0  0  0  0  0  0
   -1.4708    0.2391   -1.9455 H   0  0  0  0  0  0  0  0  0  0  0  0
    0.6245   -1.9159    0.2078 H   0  0  0  0  0  0  0  0  0  0  0  0
    0.1752   -1.4614   -1.4449 H   0  0  0  0  0  0  0  0  0  0  0  0
  1  2  1  0
  2  3  1  0
  3  4  2  0
  4  5  1  0
  5  6  1  0
  6  7  1  0
  7  8  1  0
  6  9  1  0
  9  2  1  0
  8  6  1  0
  1 10  1  0
  2 11  1  0
  3 12  1  0
  4 13  1  0
  5 14  1  0
  5 15  1  0
  7 16  1  0
  7 17  1  0
  8 18  1  0
  8 19  1  0
  9 20  1  0
  9 21  1  0
M  END
