
     RDKit          3D

 19 20  0  0  0  0  0  0  0  0999 V2000
    1.4908    0.9459    1.1654 O   0  0  0  0  0  0  0  0  0  0  0  0
    0.6127   -0.0993    0.9659 C   0  0  0  0  0  0  0  0  0  0  0  0
    1.1868   -1.1629    0.0110 C   0  0  0  0  0  0  0  0  0  0  0  0
    0.4689   -0.3890   -1.1058 C   0  0  0  0  0  0  0  0  0  0  0  0
    1.3232    0.5683   -1.6545 O   0  0  0  0  0  0  0  0  0  0  0  0
   -0.4540    0.0816   -0.0373 C   0  0  0  0  0  0  0  0  0  0  0  0
   -1.1979    1.3146   -0.1642 C   0  0  0  0  0  0  0  0  0  0  0  0
   -2.3702    0.5556   -0.3978 O   0  0  0  0  0  0  0  0  0  0  0  0
   -1.7474   -0.5943    0.1392 C   0  0  0  0  0  0  0  0  0  0  0  0
    2.3753    0.5445    1.4357 H   0  0  0  0  0  0  0  0  0  0  0  0
    0.2234   -0.5151    1.9104 H   0  0  0  0  0  0  0  0  0  0  0  0
    2.2712   -1.1737   -0.0601 H   0  0  0  0  0  0  0  0  0  0  0  0
    0.6616   -2.1157    0.1692 H   0  0  0  0  0  0  0  0  0  0  0  0
    0.0450   -1.0088   -1.8944 H   0  0  0  0  0  0  0  0  0  0  0  0
    1.3726    1.3956   -1.1469 H   0  0  0  0  0  0  0  0  0  0  0  0
   -1.3215    1.8607    0.8127 H   0  0  0  0  0  0  0  0  0  0  0  0
   -0.9770    1.9982   -0.9876 H   0  0  0  0  0  0  0  0  0  0  0  0
   -1.9473   -1.5232   -0.3892 H   0  0  0  0  0  0  0  0  0  0  0  0
   -2.0162   -0.6829    1.2282 H   0  0  0  0  0  0  0  0  0  0  0  0
  1  2  1  0
  2  3  1  0
  3  4  1  0
  4  5  1  0
  4  6  1  0
  6  7  1  0
  7  8  1  0
  8  9  1  0
  6  2  1  0
  9  6  1  0
  1 10  1  0
  2 11  1  0
  3 12  1  0
  3 13  1  0
  4 14  1  0
  5 15  1  0
  7 16  1  0
  7 17  1  0
  9 18  1  0
  9 19  1  0
M  END
