
     RDKit          3D

 21 22  0  0  0  0  0  0  0  0999 V2000
    1.4718    2.1405    0.0610 O   0  0  0  0  0  0  0  0  0  0  0  0
    0.6385    1.0752    0.3672 C   0  0  0  0  0  0  0  0  0  0  0  0
   -0.7462    1.3873   -0.2197 C   0  0  0  0  0  0  0  0  0  0  0  0
   -1.6662    0.3729    0.4286 C   0  0  0  0  0  0  0  0  0  0  0  0
   -1.2799   -1.0223    0.1044 C   0  0  0  0  0  0  0  0  0  0  0  0
    0.0598   -1.2241   -0.4642 C   0  0  0  0  0  0  0  0  0  0  0  0
    1.1638   -1.4604    0.5801 C   0  0  0  0  0  0  0  0  0  0  0  0
    1.0801   -0.2194   -0.2409 C   0  0  0  0  0  0  0  0  0  0  0  0
    2.1198   -0.0634   -1.1701 O   0  0  0  0  0  0  0  0  0  0  0  0
    1.1311    2.7134   -0.6657 H   0  0  0  0  0  0  0  0  0  0  0  0
    0.5060    0.9873    1.4483 H   0  0  0  0  0  0  0  0  0  0  0  0
   -0.7468    1.2312   -1.3284 H   0  0  0  0  0  0  0  0  0  0  0  0
   -1.0870    2.3870    0.0602 H   0  0  0  0  0  0  0  0  0  0  0  0
   -2.7383    0.5616    0.1911 H   0  0  0  0  0  0  0  0  0  0  0  0
   -1.5886    0.5666    1.5389 H   0  0  0  0  0  0  0  0  0  0  0  0
   -2.0680   -1.4469   -0.5833 H   0  0  0  0  0  0  0  0  0  0  0  0
   -1.3757   -1.6264    1.0535 H   0  0  0  0  0  0  0  0  0  0  0  0
    0.1232   -1.8081   -1.4132 H   0  0  0  0  0  0  0  0  0  0  0  0
    0.8829   -1.4307    1.6476 H   0  0  0  0  0  0  0  0  0  0  0  0
    1.8429   -2.2725    0.3216 H   0  0  0  0  0  0  0  0  0  0  0  0
    2.2767   -0.8488   -1.7169 H   0  0  0  0  0  0  0  0  0  0  0  0
  1  2  1  0
  2  3  1  0
  3  4  1  0
  4  5  1  0
  5  6  1  0
  6  7  1  0
  7  8  1  0
  8  9  1  0
  8  2  1  0
  8  6  1  0
  1 10  1  0
  2 11  1  0
  3 12  1  0
  3 13  1  0
  4 14  1  0
  4 15  1  0
  5 16  1  0
  5 17  1  0
  6 18  1  0
  7 19  1  0
  7 20  1  0
  9 21  1  0
M  END
