
     RDKit          3D

 21 23  0  0  0  0  0  0  0  0999 V2000
    2.1625   -1.7036    0.2582 O   0  0  0  0  0  0  0  0  0  0  0  0
    1.7488   -0.6744   -0.6185 C   0  0  0  0  0  0  0  0  0  0  0  0
    1.8530    0.7311   -0.0733 C   0  0  0  0  0  0  0  0  0  0  0  0
    0.5665    0.0669   -0.1974 C   0  0  0  0  0  0  0  0  0  0  0  0
   -0.4750    0.5468   -1.2245 C   0  0  0  0  0  0  0  0  0  0  0  0
   -1.7051    0.4027   -0.3711 C   0  0  0  0  0  0  0  0  0  0  0  0
   -1.4799   -1.0017    0.2084 C   0  0  0  0  0  0  0  0  0  0  0  0
   -0.3180   -0.3030    0.9285 C   0  0  0  0  0  0  0  0  0  0  0  0
   -1.2753    0.8943    0.9951 C   0  0  0  0  0  0  0  0  0  0  0  0
    2.3768   -1.3058    1.1607 H   0  0  0  0  0  0  0  0  0  0  0  0
    1.8782   -0.8730   -1.6864 H   0  0  0  0  0  0  0  0  0  0  0  0
    2.3618    0.8468    0.8947 H   0  0  0  0  0  0  0  0  0  0  0  0
    2.0989    1.5672   -0.7798 H   0  0  0  0  0  0  0  0  0  0  0  0
   -0.5608   -0.2177   -2.0371 H   0  0  0  0  0  0  0  0  0  0  0  0
   -0.2757    1.5531   -1.5758 H   0  0  0  0  0  0  0  0  0  0  0  0
   -2.6590    0.6411   -0.7433 H   0  0  0  0  0  0  0  0  0  0  0  0
   -2.2935   -1.3241    0.8576 H   0  0  0  0  0  0  0  0  0  0  0  0
   -1.1516   -1.7081   -0.5811 H   0  0  0  0  0  0  0  0  0  0  0  0
    0.0310   -0.7164    1.8321 H   0  0  0  0  0  0  0  0  0  0  0  0
   -2.1038    0.7181    1.7160 H   0  0  0  0  0  0  0  0  0  0  0  0
   -0.7798    1.8595    1.0370 H   0  0  0  0  0  0  0  0  0  0  0  0
  1  2  1  0
  2  3  1  0
  3  4  1  0
  4  5  1  0
  5  6  1  0
  6  7  1  0
  7  8  1  0
  8  9  1  0
  4  2  1  0
  9  6  1  0
  8  4  1  0
  1 10  1  0
  2 11  1  0
  3 12  1  0
  3 13  1  0
  5 14  1  0
  5 15  1  0
  6 16  1  0
  7 17  1  0
  7 18  1  0
  8 19  1  0
  9 20  1  0
  9 21  1  0
M  END
