
     RDKit          3D

 21 22  0  0  0  0  0  0  0  0999 V2000
    3.0462    0.3818    0.2650 O   0  0  0  0  0  0  0  0  0  0  0  0
    1.6975    0.0978    0.5492 C   0  0  0  0  0  0  0  0  0  0  0  0
    1.2643   -0.9475   -0.4557 C   0  0  0  0  0  0  0  0  0  0  0  0
   -0.2102   -1.1792   -0.4182 C   0  0  0  0  0  0  0  0  0  0  0  0
   -0.9766    0.0652   -0.0429 C   0  0  0  0  0  0  0  0  0  0  0  0
   -2.0815   -0.1047    0.9066 C   0  0  0  0  0  0  0  0  0  0  0  0
   -2.4492    0.1349   -0.5034 C   0  0  0  0  0  0  0  0  0  0  0  0
   -0.2867    1.2256   -0.2275 O   0  0  0  0  0  0  0  0  0  0  0  0
    0.8803    1.3489    0.4737 C   0  0  0  0  0  0  0  0  0  0  0  0
    3.1160    1.3245   -0.0622 H   0  0  0  0  0  0  0  0  0  0  0  0
    1.6167   -0.3171    1.5822 H   0  0  0  0  0  0  0  0  0  0  0  0
    1.8094   -1.8845   -0.2338 H   0  0  0  0  0  0  0  0  0  0  0  0
    1.5782   -0.5687   -1.4575 H   0  0  0  0  0  0  0  0  0  0  0  0
   -0.6198   -1.5511   -1.3817 H   0  0  0  0  0  0  0  0  0  0  0  0
   -0.4073   -1.9835    0.3399 H   0  0  0  0  0  0  0  0  0  0  0  0
   -2.2806   -1.1351    1.2974 H   0  0  0  0  0  0  0  0  0  0  0  0
   -2.2490    0.6957    1.6429 H   0  0  0  0  0  0  0  0  0  0  0  0
   -2.7430   -0.6637   -1.1962 H   0  0  0  0  0  0  0  0  0  0  0  0
   -2.8538    1.1304   -0.7606 H   0  0  0  0  0  0  0  0  0  0  0  0
    1.4947    2.1400   -0.0472 H   0  0  0  0  0  0  0  0  0  0  0  0
    0.6544    1.7903    1.4765 H   0  0  0  0  0  0  0  0  0  0  0  0
  1  2  1  0
  2  3  1  0
  3  4  1  0
  4  5  1  0
  5  6  1  0
  6  7  1  0
  5  8  1  0
  8  9  1  0
  9  2  1  0
  7  5  1  0
  1 10  1  0
  2 11  1  0
  3 12  1  0
  3 13  1  0
  4 14  1  0
  4 15  1  0
  6 16  1  0
  6 17  1  0
  7 18  1  0
  7 19  1  0
  9 20  1  0
  9 21  1  0
M  END
