
     RDKit          3D

 19 20  0  0  0  0  0  0  0  0999 V2000
    1.8101   -1.2956   -0.6835 O   0  0  0  0  0  0  0  0  0  0  0  0
    1.3279   -0.3425    0.1864 C   0  0  0  0  0  0  0  0  0  0  0  0
    1.3154    1.0497   -0.3865 C   0  0  0  0  0  0  0  0  0  0  0  0
    0.2154    1.7035    0.0672 O   0  0  0  0  0  0  0  0  0  0  0  0
   -0.6304    0.8428    0.6993 C   0  0  0  0  0  0  0  0  0  0  0  0
   -1.9105    0.7535   -0.1388 C   0  0  0  0  0  0  0  0  0  0  0  0
   -2.2038   -0.5940   -0.1152 O   0  0  0  0  0  0  0  0  0  0  0  0
   -0.9592   -1.2044   -0.3981 C   0  0  0  0  0  0  0  0  0  0  0  0
   -0.0802   -0.5441    0.6197 C   0  0  0  0  0  0  0  0  0  0  0  0
    2.6161   -1.7359   -0.2863 H   0  0  0  0  0  0  0  0  0  0  0  0
    1.9643   -0.3195    1.1177 H   0  0  0  0  0  0  0  0  0  0  0  0
    1.3981    0.9557   -1.4817 H   0  0  0  0  0  0  0  0  0  0  0  0
    2.2210    1.6222   -0.0528 H   0  0  0  0  0  0  0  0  0  0  0  0
   -0.8454    1.0803    1.7514 H   0  0  0  0  0  0  0  0  0  0  0  0
   -1.6855    1.0364   -1.2009 H   0  0  0  0  0  0  0  0  0  0  0  0
   -2.6575    1.3940    0.3277 H   0  0  0  0  0  0  0  0  0  0  0  0
   -1.1024   -2.2944   -0.2230 H   0  0  0  0  0  0  0  0  0  0  0  0
   -0.6896   -0.9995   -1.4394 H   0  0  0  0  0  0  0  0  0  0  0  0
   -0.1035   -1.1083    1.5526 H   0  0  0  0  0  0  0  0  0  0  0  0
  1  2  1  0
  2  3  1  0
  3  4  1  0
  4  5  1  0
  5  6  1  0
  6  7  1  0
  7  8  1  0
  8  9  1  0
  9  2  1  0
  9  5  1  0
  1 10  1  0
  2 11  1  0
  3 12  1  0
  3 13  1  0
  5 14  1  0
  6 15  1  0
  6 16  1  0
  8 17  1  0
  8 18  1  0
  9 19  1  0
M  END
