
     RDKit          3D

 14 15  0  0  0  0  0  0  0  0999 V2000
    1.9260    0.3468   -0.3393 O   0  0  0  0  0  0  0  0  0  0  0  0
    0.8377   -0.5170   -0.1818 C   0  0  0  0  0  0  0  0  0  0  0  0
   -0.0230   -0.1483    0.9853 C   0  0  0  0  0  0  0  0  0  0  0  0
   -0.2777    1.1431    0.2422 C   0  0  0  0  0  0  0  0  0  0  0  0
   -0.3868    0.0603   -0.8189 C   0  0  0  0  0  0  0  0  0  0  0  0
   -1.1790   -0.7009    0.2045 C   0  0  0  0  0  0  0  0  0  0  0  0
    2.5490   -0.0137   -1.0073 H   0  0  0  0  0  0  0  0  0  0  0  0
    1.0276   -1.5731   -0.3631 H   0  0  0  0  0  0  0  0  0  0  0  0
    0.1692   -0.2503    1.9596 H   0  0  0  0  0  0  0  0  0  0  0  0
   -1.2404    1.6182    0.5139 H   0  0  0  0  0  0  0  0  0  0  0  0
    0.5742    1.8082    0.1070 H   0  0  0  0  0  0  0  0  0  0  0  0
   -0.5884    0.1981   -1.7828 H   0  0  0  0  0  0  0  0  0  0  0  0
   -2.1504   -0.1915    0.3965 H   0  0  0  0  0  0  0  0  0  0  0  0
   -1.2380   -1.7799    0.0839 H   0  0  0  0  0  0  0  0  0  0  0  0
  1  2  1  0
  2  3  1  0
  3  4  1  0
  4  5  1  0
  5  6  1  0
  5  2  1  0
  6  3  1  0
  1  7  1  0
  2  8  1  0
  3  9  1  0
  4 10  1  0
  4 11  1  0
  5 12  1  0
  6 13  1  0
  6 14  1  0
M  END
