
     RDKit          3D

 19 20  0  0  0  0  0  0  0  0999 V2000
   -1.6625    1.3953    0.5327 O   0  0  0  0  0  0  0  0  0  0  0  0
   -1.2661    0.2588   -0.1658 C   0  0  0  0  0  0  0  0  0  0  0  0
   -0.9800   -0.9076    0.7228 C   0  0  0  0  0  0  0  0  0  0  0  0
    0.5508   -1.0374    0.6445 C   0  0  0  0  0  0  0  0  0  0  0  0
    0.7126   -0.8025   -0.8632 C   0  0  0  0  0  0  0  0  0  0  0  0
    0.0032    0.5335   -0.9638 C   0  0  0  0  0  0  0  0  0  0  0  0
    0.7527    1.4956   -0.3436 O   0  0  0  0  0  0  0  0  0  0  0  0
    1.5122    1.0721    0.7096 C   0  0  0  0  0  0  0  0  0  0  0  0
    1.0671   -0.0158    1.3854 O   0  0  0  0  0  0  0  0  0  0  0  0
   -2.6457    1.4505    0.5348 H   0  0  0  0  0  0  0  0  0  0  0  0
   -2.0258   -0.0689   -0.9139 H   0  0  0  0  0  0  0  0  0  0  0  0
   -1.3973   -1.8690    0.3031 H   0  0  0  0  0  0  0  0  0  0  0  0
   -1.2813   -0.7829    1.7663 H   0  0  0  0  0  0  0  0  0  0  0  0
    0.8972   -2.0206    0.9532 H   0  0  0  0  0  0  0  0  0  0  0  0
    1.7481   -0.7782   -1.1771 H   0  0  0  0  0  0  0  0  0  0  0  0
    0.0722   -1.5446   -1.3578 H   0  0  0  0  0  0  0  0  0  0  0  0
   -0.1911    0.7987   -1.9997 H   0  0  0  0  0  0  0  0  0  0  0  0
    2.5821    0.8901    0.4066 H   0  0  0  0  0  0  0  0  0  0  0  0
    1.5514    1.9329    1.4420 H   0  0  0  0  0  0  0  0  0  0  0  0
  1  2  1  0
  2  3  1  0
  3  4  1  0
  4  5  1  0
  5  6  1  0
  6  7  1  0
  7  8  1  0
  8  9  1  0
  6  2  1  0
  9  4  1  0
  1 10  1  0
  2 11  1  0
  3 12  1  0
  3 13  1  0
  4 14  1  0
  5 15  1  0
  5 16  1  0
  6 17  1  0
  8 18  1  0
  8 19  1  0
M  END
