
     RDKit          3D

 17 18  0  0  0  0  0  0  0  0999 V2000
   -1.5541    0.0907    1.4785 O   0  0  0  0  0  0  0  0  0  0  0  0
   -1.6058    0.1287    0.1015 C   0  0  0  0  0  0  0  0  0  0  0  0
   -0.6318   -0.5241   -0.7701 C   0  0  0  0  0  0  0  0  0  0  0  0
    0.5991   -1.1995   -0.2450 C   0  0  0  0  0  0  0  0  0  0  0  0
    1.6017   -0.1008    0.0480 C   0  0  0  0  0  0  0  0  0  0  0  0
    0.7577    1.1387    0.3146 C   0  0  0  0  0  0  0  0  0  0  0  0
   -0.4696    0.9261   -0.5273 C   0  0  0  0  0  0  0  0  0  0  0  0
   -2.0326   -0.6900    1.8763 H   0  0  0  0  0  0  0  0  0  0  0  0
   -2.6356    0.2716   -0.3047 H   0  0  0  0  0  0  0  0  0  0  0  0
   -0.9772   -0.8577   -1.7845 H   0  0  0  0  0  0  0  0  0  0  0  0
    1.0609   -1.8544   -1.0071 H   0  0  0  0  0  0  0  0  0  0  0  0
    0.4026   -1.8422    0.6383 H   0  0  0  0  0  0  0  0  0  0  0  0
    2.1570   -0.4062    0.9502 H   0  0  0  0  0  0  0  0  0  0  0  0
    2.2717    0.0959   -0.8272 H   0  0  0  0  0  0  0  0  0  0  0  0
    0.4716    1.1588    1.3961 H   0  0  0  0  0  0  0  0  0  0  0  0
    1.2941    2.0529    0.0148 H   0  0  0  0  0  0  0  0  0  0  0  0
   -0.7098    1.6114   -1.3524 H   0  0  0  0  0  0  0  0  0  0  0  0
  1  2  1  0
  2  3  1  0
  3  4  1  0
  4  5  1  0
  5  6  1  0
  6  7  1  0
  7  2  1  0
  7  3  1  0
  1  8  1  0
  2  9  1  0
  3 10  1  0
  4 11  1  0
  4 12  1  0
  5 13  1  0
  5 14  1  0
  6 15  1  0
  6 16  1  0
  7 17  1  0
M  END
