
     RDKit          3D

 23 23  0  0  0  0  0  0  0  0999 V2000
    2.5372   -1.0979   -0.6501 O   0  0  0  0  0  0  0  0  0  0  0  0
    1.2714   -0.5581   -0.4217 C   0  0  0  0  0  0  0  0  0  0  0  0
    0.5404   -1.3179    0.6772 C   0  0  0  0  0  0  0  0  0  0  0  0
   -0.9120   -1.4328    0.3143 C   0  0  0  0  0  0  0  0  0  0  0  0
   -1.7261   -0.3058    0.8946 C   0  0  0  0  0  0  0  0  0  0  0  0
   -1.7644    0.8819   -0.0618 C   0  0  0  0  0  0  0  0  0  0  0  0
   -0.7337    0.8144   -0.9543 O   0  0  0  0  0  0  0  0  0  0  0  0
    0.3214    1.6646   -0.7008 C   0  0  0  0  0  0  0  0  0  0  0  0
    1.4344    0.8853   -0.0018 C   0  0  0  0  0  0  0  0  0  0  0  0
    3.1435   -0.6604    0.0144 H   0  0  0  0  0  0  0  0  0  0  0  0
    0.6976   -0.6464   -1.3727 H   0  0  0  0  0  0  0  0  0  0  0  0
    1.0213   -2.3306    0.7120 H   0  0  0  0  0  0  0  0  0  0  0  0
    0.6579   -0.7891    1.6372 H   0  0  0  0  0  0  0  0  0  0  0  0
   -1.0709   -1.4233   -0.7846 H   0  0  0  0  0  0  0  0  0  0  0  0
   -1.2808   -2.4088    0.7152 H   0  0  0  0  0  0  0  0  0  0  0  0
   -1.2799   -0.0303    1.8576 H   0  0  0  0  0  0  0  0  0  0  0  0
   -2.7603   -0.6968    1.0709 H   0  0  0  0  0  0  0  0  0  0  0  0
   -2.7294    0.7791   -0.6396 H   0  0  0  0  0  0  0  0  0  0  0  0
   -1.8482    1.8302    0.4899 H   0  0  0  0  0  0  0  0  0  0  0  0
    0.0553    2.5806   -0.1652 H   0  0  0  0  0  0  0  0  0  0  0  0
    0.7691    1.9916   -1.6791 H   0  0  0  0  0  0  0  0  0  0  0  0
    1.2215    0.9765    1.0868 H   0  0  0  0  0  0  0  0  0  0  0  0
    2.4344    1.2942   -0.2510 H   0  0  0  0  0  0  0  0  0  0  0  0
  1  2  1  0
  2  3  1  0
  3  4  1  0
  4  5  1  0
  5  6  1  0
  6  7  1  0
  7  8  1  0
  8  9  1  0
  9  2  1  0
  1 10  1  0
  2 11  1  0
  3 12  1  0
  3 13  1  0
  4 14  1  0
  4 15  1  0
  5 16  1  0
  5 17  1  0
  6 18  1  0
  6 19  1  0
  8 20  1  0
  8 21  1  0
  9 22  1  0
  9 23  1  0
M  END
