
     RDKit          3D

 23 24  0  0  0  0  0  0  0  0999 V2000
    1.2427   -1.4829    1.3462 O   0  0  0  0  0  0  0  0  0  0  0  0
    1.0758   -1.0502    0.0275 C   0  0  0  0  0  0  0  0  0  0  0  0
    1.8307    0.2616   -0.1606 C   0  0  0  0  0  0  0  0  0  0  0  0
    1.0052    1.3306    0.5212 C   0  0  0  0  0  0  0  0  0  0  0  0
   -0.2293    1.5480   -0.2945 C   0  0  0  0  0  0  0  0  0  0  0  0
   -0.8009    0.3379   -0.9165 C   0  0  0  0  0  0  0  0  0  0  0  0
   -2.1694   -0.0127   -0.3145 C   0  0  0  0  0  0  0  0  0  0  0  0
   -1.3951   -0.9275    0.6479 C   0  0  0  0  0  0  0  0  0  0  0  0
   -0.3244   -0.9670   -0.4140 C   0  0  0  0  0  0  0  0  0  0  0  0
    1.9845   -2.1295    1.4456 H   0  0  0  0  0  0  0  0  0  0  0  0
    1.6452   -1.7993   -0.5986 H   0  0  0  0  0  0  0  0  0  0  0  0
    2.8423    0.1662    0.2238 H   0  0  0  0  0  0  0  0  0  0  0  0
    1.7815    0.4903   -1.2584 H   0  0  0  0  0  0  0  0  0  0  0  0
    1.5999    2.2725    0.5845 H   0  0  0  0  0  0  0  0  0  0  0  0
    0.8070    1.0316    1.5700 H   0  0  0  0  0  0  0  0  0  0  0  0
    0.0572    2.2597   -1.1254 H   0  0  0  0  0  0  0  0  0  0  0  0
   -0.9622    2.1443    0.3194 H   0  0  0  0  0  0  0  0  0  0  0  0
   -0.8927    0.3715   -2.0344 H   0  0  0  0  0  0  0  0  0  0  0  0
   -2.7632   -0.6582   -1.0075 H   0  0  0  0  0  0  0  0  0  0  0  0
   -2.6918    0.8147    0.1576 H   0  0  0  0  0  0  0  0  0  0  0  0
   -1.8940   -1.8736    0.8754 H   0  0  0  0  0  0  0  0  0  0  0  0
   -1.1603   -0.3430    1.5527 H   0  0  0  0  0  0  0  0  0  0  0  0
   -0.5884   -1.7850   -1.1475 H   0  0  0  0  0  0  0  0  0  0  0  0
  1  2  1  0
  2  3  1  0
  3  4  1  0
  4  5  1  0
  5  6  1  0
  6  7  1  0
  7  8  1  0
  8  9  1  0
  9  2  1  0
  9  6  1  0
  1 10  1  0
  2 11  1  0
  3 12  1  0
  3 13  1  0
  4 14  1  0
  4 15  1  0
  5 16  1  0
  5 17  1  0
  6 18  1  0
  7 19  1  0
  7 20  1  0
  8 21  1  0
  8 22  1  0
  9 23  1  0
M  END
