
     RDKit          3D

 19 21  0  0  0  0  0  0  0  0999 V2000
   -1.8773    1.6871    0.5571 O   0  0  0  0  0  0  0  0  0  0  0  0
   -0.6504    0.9950    0.6097 C   0  0  0  0  0  0  0  0  0  0  0  0
   -0.8990   -0.4652    0.9906 C   0  0  0  0  0  0  0  0  0  0  0  0
   -1.3236   -0.6534   -0.4720 C   0  0  0  0  0  0  0  0  0  0  0  0
   -0.3235    0.4759   -0.7645 C   0  0  0  0  0  0  0  0  0  0  0  0
    1.0302   -0.1669   -0.8392 C   0  0  0  0  0  0  0  0  0  0  0  0
    2.0907    0.0628    0.1341 C   0  0  0  0  0  0  0  0  0  0  0  0
    1.1915   -1.1299    0.2567 C   0  0  0  0  0  0  0  0  0  0  0  0
    0.2842   -1.0767    1.2716 O   0  0  0  0  0  0  0  0  0  0  0  0
   -1.9510    2.1498   -0.3308 H   0  0  0  0  0  0  0  0  0  0  0  0
    0.1405    1.4975    1.1601 H   0  0  0  0  0  0  0  0  0  0  0  0
   -1.6993   -0.6418    1.6966 H   0  0  0  0  0  0  0  0  0  0  0  0
   -2.3550   -0.2772   -0.6018 H   0  0  0  0  0  0  0  0  0  0  0  0
   -1.0722   -1.6167   -0.9058 H   0  0  0  0  0  0  0  0  0  0  0  0
   -0.6511    1.0715   -1.6108 H   0  0  0  0  0  0  0  0  0  0  0  0
    1.3292   -0.4451   -1.8747 H   0  0  0  0  0  0  0  0  0  0  0  0
    2.0597    0.8531    0.9154 H   0  0  0  0  0  0  0  0  0  0  0  0
    3.1249   -0.1784   -0.1760 H   0  0  0  0  0  0  0  0  0  0  0  0
    1.5517   -2.1417   -0.0164 H   0  0  0  0  0  0  0  0  0  0  0  0
  1  2  1  0
  2  3  1  0
  3  4  1  0
  4  5  1  0
  5  6  1  0
  6  7  1  0
  7  8  1  0
  8  9  1  0
  5  2  1  0
  8  6  1  0
  9  3  1  0
  1 10  1  0
  2 11  1  0
  3 12  1  0
  4 13  1  0
  4 14  1  0
  5 15  1  0
  6 16  1  0
  7 17  1  0
  7 18  1  0
  8 19  1  0
M  END
