
     RDKit          3D

 19 21  0  0  0  0  0  0  0  0999 V2000
   -1.8416    1.6708    0.4018 O   0  0  0  0  0  0  0  0  0  0  0  0
   -0.9976    0.6469    0.7762 C   0  0  0  0  0  0  0  0  0  0  0  0
   -1.4160   -0.7056    0.3239 C   0  0  0  0  0  0  0  0  0  0  0  0
   -0.2454   -1.3210   -0.3845 C   0  0  0  0  0  0  0  0  0  0  0  0
    0.9261   -0.4296   -0.2372 C   0  0  0  0  0  0  0  0  0  0  0  0
    1.3870    0.4276   -1.4235 C   0  0  0  0  0  0  0  0  0  0  0  0
    0.6438    1.4698   -0.8395 O   0  0  0  0  0  0  0  0  0  0  0  0
    0.4296    0.8554    0.3624 C   0  0  0  0  0  0  0  0  0  0  0  0
    1.4407    0.0446    1.0625 C   0  0  0  0  0  0  0  0  0  0  0  0
   -1.9304    1.8148   -0.5514 H   0  0  0  0  0  0  0  0  0  0  0  0
   -0.9996    0.6354    1.9058 H   0  0  0  0  0  0  0  0  0  0  0  0
   -2.3452   -0.6886   -0.3030 H   0  0  0  0  0  0  0  0  0  0  0  0
   -1.6701   -1.3963    1.1773 H   0  0  0  0  0  0  0  0  0  0  0  0
   -0.5220   -1.3588   -1.4783 H   0  0  0  0  0  0  0  0  0  0  0  0
   -0.0666   -2.3740   -0.0940 H   0  0  0  0  0  0  0  0  0  0  0  0
    1.0511    0.0903   -2.3988 H   0  0  0  0  0  0  0  0  0  0  0  0
    2.4723    0.7112   -1.3378 H   0  0  0  0  0  0  0  0  0  0  0  0
    1.1484   -0.4126    2.0038 H   0  0  0  0  0  0  0  0  0  0  0  0
    2.5355    0.3198    1.0344 H   0  0  0  0  0  0  0  0  0  0  0  0
  1  2  1  0
  2  3  1  0
  3  4  1  0
  4  5  1  0
  5  6  1  0
  6  7  1  0
  7  8  1  0
  8  9  1  0
  8  2  1  0
  8  5  1  0
  9  5  1  0
  1 10  1  0
  2 11  1  0
  3 12  1  0
  3 13  1  0
  4 14  1  0
  4 15  1  0
  6 16  1  0
  6 17  1  0
  9 18  1  0
  9 19  1  0
M  END
