
     RDKit          3D

 23 24  0  0  0  0  0  0  0  0999 V2000
    3.7264    0.2389   -0.2733 O   0  0  0  0  0  0  0  0  0  0  0  0
    2.4356   -0.3003   -0.4554 C   0  0  0  0  0  0  0  0  0  0  0  0
    1.7947   -0.7832    0.7806 C   0  0  0  0  0  0  0  0  0  0  0  0
    1.2926    0.4485    0.0718 C   0  0  0  0  0  0  0  0  0  0  0  0
   -0.0853    0.3719   -0.4569 C   0  0  0  0  0  0  0  0  0  0  0  0
   -0.7339   -0.9779   -0.4190 C   0  0  0  0  0  0  0  0  0  0  0  0
   -2.1972   -0.5938   -0.6927 C   0  0  0  0  0  0  0  0  0  0  0  0
   -2.3686    0.5213    0.3441 C   0  0  0  0  0  0  0  0  0  0  0  0
   -1.0261    1.1748    0.4472 C   0  0  0  0  0  0  0  0  0  0  0  0
    3.6699    1.0884    0.2398 H   0  0  0  0  0  0  0  0  0  0  0  0
    2.3854   -0.9425   -1.3517 H   0  0  0  0  0  0  0  0  0  0  0  0
    2.2282   -0.5900    1.7820 H   0  0  0  0  0  0  0  0  0  0  0  0
    1.2576   -1.7308    0.7172 H   0  0  0  0  0  0  0  0  0  0  0  0
    1.5446    1.4476    0.5348 H   0  0  0  0  0  0  0  0  0  0  0  0
   -0.2037    0.7631   -1.4923 H   0  0  0  0  0  0  0  0  0  0  0  0
   -0.7390   -1.3499    0.6276 H   0  0  0  0  0  0  0  0  0  0  0  0
   -0.3555   -1.6914   -1.1487 H   0  0  0  0  0  0  0  0  0  0  0  0
   -2.3081   -0.1595   -1.6898 H   0  0  0  0  0  0  0  0  0  0  0  0
   -2.8698   -1.4388   -0.4788 H   0  0  0  0  0  0  0  0  0  0  0  0
   -3.1534    1.2389    0.0288 H   0  0  0  0  0  0  0  0  0  0  0  0
   -2.6538   -0.0003    1.2932 H   0  0  0  0  0  0  0  0  0  0  0  0
   -1.0090    2.2222    0.1124 H   0  0  0  0  0  0  0  0  0  0  0  0
   -0.6316    1.0428    1.4791 H   0  0  0  0  0  0  0  0  0  0  0  0
  1  2  1  0
  2  3  1  0
  3  4  1  0
  4  5  1  0
  5  6  1  0
  6  7  1  0
  7  8  1  0
  8  9  1  0
  4  2  1  0
  9  5  1  0
  1 10  1  0
  2 11  1  0
  3 12  1  0
  3 13  1  0
  4 14  1  0
  5 15  1  0
  6 16  1  0
  6 17  1  0
  7 18  1  0
  7 19  1  0
  8 20  1  0
  8 21  1  0
  9 22  1  0
  9 23  1  0
M  END
