
     RDKit          3D

 19 20  0  0  0  0  0  0  0  0999 V2000
   -2.3362    0.1609   -1.1864 O   0  0  0  0  0  0  0  0  0  0  0  0
   -1.9323    0.1859    0.1377 C   0  0  0  0  0  0  0  0  0  0  0  0
   -0.8037   -0.6387    0.5615 C   0  0  0  0  0  0  0  0  0  0  0  0
    0.2046   -1.2171   -0.3782 C   0  0  0  0  0  0  0  0  0  0  0  0
    1.5836   -0.8904    0.2050 C   0  0  0  0  0  0  0  0  0  0  0  0
    2.1611    0.1994   -0.3882 O   0  0  0  0  0  0  0  0  0  0  0  0
    1.4471    1.3579   -0.3377 C   0  0  0  0  0  0  0  0  0  0  0  0
    0.1136    1.2571   -0.6212 O   0  0  0  0  0  0  0  0  0  0  0  0
   -0.6799    0.9008    0.4585 C   0  0  0  0  0  0  0  0  0  0  0  0
   -3.1304   -0.4513   -1.2217 H   0  0  0  0  0  0  0  0  0  0  0  0
   -2.7876    0.2503    0.8663 H   0  0  0  0  0  0  0  0  0  0  0  0
   -0.7234   -1.0514    1.6074 H   0  0  0  0  0  0  0  0  0  0  0  0
    0.0826   -2.2684   -0.6113 H   0  0  0  0  0  0  0  0  0  0  0  0
    0.1747   -0.6515   -1.3555 H   0  0  0  0  0  0  0  0  0  0  0  0
    1.5281   -0.7594    1.3020 H   0  0  0  0  0  0  0  0  0  0  0  0
    2.2080   -1.7747    0.0184 H   0  0  0  0  0  0  0  0  0  0  0  0
    1.5541    1.9034    0.6284 H   0  0  0  0  0  0  0  0  0  0  0  0
    1.8934    2.0593   -1.1037 H   0  0  0  0  0  0  0  0  0  0  0  0
   -0.5575    1.4278    1.4186 H   0  0  0  0  0  0  0  0  0  0  0  0
  1  2  1  0
  2  3  1  0
  3  4  1  0
  4  5  1  0
  5  6  1  0
  6  7  1  0
  7  8  1  0
  8  9  1  0
  9  2  1  0
  9  3  1  0
  1 10  1  0
  2 11  1  0
  3 12  1  0
  4 13  1  0
  4 14  1  0
  5 15  1  0
  5 16  1  0
  7 17  1  0
  7 18  1  0
  9 19  1  0
M  END
