
     RDKit          3D

 19 21  0  0  0  0  0  0  0  0999 V2000
    1.8531   -2.2027    0.3097 O   0  0  0  0  0  0  0  0  0  0  0  0
    1.3099   -1.0964   -0.3923 C   0  0  0  0  0  0  0  0  0  0  0  0
    1.7423    0.2632   -0.2494 C   0  0  0  0  0  0  0  0  0  0  0  0
    0.9283    1.4835    0.1024 C   0  0  0  0  0  0  0  0  0  0  0  0
    0.6586    0.7303    1.2612 O   0  0  0  0  0  0  0  0  0  0  0  0
    0.4025   -0.2885    0.3694 C   0  0  0  0  0  0  0  0  0  0  0  0
   -0.8860   -0.0147   -0.3792 C   0  0  0  0  0  0  0  0  0  0  0  0
   -1.9445    0.7708    0.2913 C   0  0  0  0  0  0  0  0  0  0  0  0
   -2.0831   -0.7164    0.2798 C   0  0  0  0  0  0  0  0  0  0  0  0
    2.7271   -1.9299    0.7021 H   0  0  0  0  0  0  0  0  0  0  0  0
    1.1018   -1.4190   -1.4553 H   0  0  0  0  0  0  0  0  0  0  0  0
    2.6244    0.2785    0.4731 H   0  0  0  0  0  0  0  0  0  0  0  0
    1.5496    2.3849    0.2696 H   0  0  0  0  0  0  0  0  0  0  0  0
    0.1066    1.7446   -0.5398 H   0  0  0  0  0  0  0  0  0  0  0  0
   -0.9161   -0.1724   -1.4955 H   0  0  0  0  0  0  0  0  0  0  0  0
   -1.6636    1.1927    1.2844 H   0  0  0  0  0  0  0  0  0  0  0  0
   -2.6654    1.3928   -0.2555 H   0  0  0  0  0  0  0  0  0  0  0  0
   -1.9338   -1.3150    1.1844 H   0  0  0  0  0  0  0  0  0  0  0  0
   -2.9114   -1.0863   -0.3531 H   0  0  0  0  0  0  0  0  0  0  0  0
  1  2  1  0
  2  3  1  0
  3  4  1  0
  4  5  1  0
  5  6  1  0
  6  7  1  0
  7  8  1  0
  8  9  1  0
  6  2  1  0
  9  7  1  0
  6  3  1  0
  1 10  1  0
  2 11  1  0
  3 12  1  0
  4 13  1  0
  4 14  1  0
  7 15  1  0
  8 16  1  0
  8 17  1  0
  9 18  1  0
  9 19  1  0
M  END
