
     RDKit          3D

 19 20  0  0  0  0  0  0  0  0999 V2000
   -2.6646   -0.7034   -1.0041 O   0  0  0  0  0  0  0  0  0  0  0  0
   -1.8179   -0.4197    0.0468 C   0  0  0  0  0  0  0  0  0  0  0  0
   -0.6267   -1.3341    0.0831 C   0  0  0  0  0  0  0  0  0  0  0  0
    0.4908   -0.7007    0.3418 C   0  0  0  0  0  0  0  0  0  0  0  0
    1.8644   -0.2254    0.6137 C   0  0  0  0  0  0  0  0  0  0  0  0
    2.8814   -0.9072   -0.0356 O   0  0  0  0  0  0  0  0  0  0  0  0
    1.4190    1.0444   -0.1530 C   0  0  0  0  0  0  0  0  0  0  0  0
    0.1101    0.7636    0.5437 C   0  0  0  0  0  0  0  0  0  0  0  0
   -1.1366    0.9156   -0.2878 C   0  0  0  0  0  0  0  0  0  0  0  0
   -3.1163   -1.5668   -0.9518 H   0  0  0  0  0  0  0  0  0  0  0  0
   -2.3095   -0.3382    1.0196 H   0  0  0  0  0  0  0  0  0  0  0  0
   -0.7144   -2.4226   -0.0936 H   0  0  0  0  0  0  0  0  0  0  0  0
    2.0298    0.0364    1.6628 H   0  0  0  0  0  0  0  0  0  0  0  0
    2.8414   -0.7066   -1.0116 H   0  0  0  0  0  0  0  0  0  0  0  0
    1.9313    1.9510    0.1758 H   0  0  0  0  0  0  0  0  0  0  0  0
    1.3974    0.8263   -1.2202 H   0  0  0  0  0  0  0  0  0  0  0  0
    0.0575    1.0682    1.5860 H   0  0  0  0  0  0  0  0  0  0  0  0
   -1.7528    1.7747    0.0475 H   0  0  0  0  0  0  0  0  0  0  0  0
   -0.8843    0.9444   -1.3631 H   0  0  0  0  0  0  0  0  0  0  0  0
  1  2  1  0
  2  3  1  0
  3  4  2  0
  4  5  1  0
  5  6  1  0
  5  7  1  0
  7  8  1  0
  8  9  1  0
  9  2  1  0
  8  4  1  0
  1 10  1  0
  2 11  1  0
  3 12  1  0
  5 13  1  0
  6 14  1  0
  7 15  1  0
  7 16  1  0
  8 17  1  0
  9 18  1  0
  9 19  1  0
M  END
