
     RDKit          3D

 19 20  0  0  0  0  0  0  0  0999 V2000
    1.3227   -1.8958   -0.0081 O   0  0  0  0  0  0  0  0  0  0  0  0
    0.8647   -0.6883    0.4699 C   0  0  0  0  0  0  0  0  0  0  0  0
    1.1988    0.4602   -0.4978 C   0  0  0  0  0  0  0  0  0  0  0  0
   -0.1306    1.0190   -0.8824 C   0  0  0  0  0  0  0  0  0  0  0  0
   -0.7069    1.6729    0.3400 C   0  0  0  0  0  0  0  0  0  0  0  0
   -0.9564    0.6922    1.2062 C   0  0  0  0  0  0  0  0  0  0  0  0
   -0.6357   -0.6160    0.5755 C   0  0  0  0  0  0  0  0  0  0  0  0
   -0.9795   -0.2677   -0.8852 C   0  0  0  0  0  0  0  0  0  0  0  0
   -0.4838   -1.1812   -1.7674 O   0  0  0  0  0  0  0  0  0  0  0  0
    2.2918   -1.7579   -0.2438 H   0  0  0  0  0  0  0  0  0  0  0  0
    1.2990   -0.4747    1.4693 H   0  0  0  0  0  0  0  0  0  0  0  0
    1.7761    0.0677   -1.3662 H   0  0  0  0  0  0  0  0  0  0  0  0
    1.8224    1.2237    0.0026 H   0  0  0  0  0  0  0  0  0  0  0  0
   -0.1967    1.5859   -1.7783 H   0  0  0  0  0  0  0  0  0  0  0  0
   -0.8667    2.7420    0.4422 H   0  0  0  0  0  0  0  0  0  0  0  0
   -1.3333    0.8578    2.2052 H   0  0  0  0  0  0  0  0  0  0  0  0
   -1.1399   -1.4689    0.9552 H   0  0  0  0  0  0  0  0  0  0  0  0
   -2.0438   -0.0482   -0.9589 H   0  0  0  0  0  0  0  0  0  0  0  0
   -1.1020   -1.9227   -1.8525 H   0  0  0  0  0  0  0  0  0  0  0  0
  1  2  1  0
  2  3  1  0
  3  4  1  0
  4  5  1  0
  5  6  2  0
  6  7  1  0
  7  8  1  0
  8  9  1  0
  7  2  1  0
  8  4  1  0
  1 10  1  0
  2 11  1  0
  3 12  1  0
  3 13  1  0
  4 14  1  0
  5 15  1  0
  6 16  1  0
  7 17  1  0
  8 18  1  0
  9 19  1  0
M  END
