
     RDKit          3D

 21 23  0  0  0  0  0  0  0  0999 V2000
    2.9840   -0.6166   -0.3641 O   0  0  0  0  0  0  0  0  0  0  0  0
    2.2612    0.5592   -0.5383 C   0  0  0  0  0  0  0  0  0  0  0  0
    1.1654    0.9063    0.3739 C   0  0  0  0  0  0  0  0  0  0  0  0
    0.1894   -0.1367    0.8329 C   0  0  0  0  0  0  0  0  0  0  0  0
   -1.0376    0.4766    1.4298 C   0  0  0  0  0  0  0  0  0  0  0  0
   -2.1451   -0.1102    0.5930 C   0  0  0  0  0  0  0  0  0  0  0  0
   -1.5813    0.0286   -0.8110 C   0  0  0  0  0  0  0  0  0  0  0  0
   -0.1487   -0.4256   -0.6007 C   0  0  0  0  0  0  0  0  0  0  0  0
    0.8719    0.5556   -1.0344 C   0  0  0  0  0  0  0  0  0  0  0  0
    3.5679   -0.6958   -1.1814 H   0  0  0  0  0  0  0  0  0  0  0  0
    2.8912    1.4020   -0.8902 H   0  0  0  0  0  0  0  0  0  0  0  0
    1.0247    1.9210    0.7791 H   0  0  0  0  0  0  0  0  0  0  0  0
    0.6889   -0.9259    1.3971 H   0  0  0  0  0  0  0  0  0  0  0  0
   -1.2100    0.1790    2.4776 H   0  0  0  0  0  0  0  0  0  0  0  0
   -1.0316    1.5715    1.3072 H   0  0  0  0  0  0  0  0  0  0  0  0
   -3.0749    0.4712    0.6693 H   0  0  0  0  0  0  0  0  0  0  0  0
   -2.2996   -1.1780    0.8038 H   0  0  0  0  0  0  0  0  0  0  0  0
   -2.1348   -0.6117   -1.5137 H   0  0  0  0  0  0  0  0  0  0  0  0
   -1.5763    1.1031   -1.1094 H   0  0  0  0  0  0  0  0  0  0  0  0
    0.0192   -1.4903   -0.8299 H   0  0  0  0  0  0  0  0  0  0  0  0
    0.5761    1.2869   -1.7905 H   0  0  0  0  0  0  0  0  0  0  0  0
  1  2  1  0
  2  3  1  0
  3  4  1  0
  4  5  1  0
  5  6  1  0
  6  7  1  0
  7  8  1  0
  8  9  1  0
  9  2  1  0
  9  3  1  0
  8  4  1  0
  1 10  1  0
  2 11  1  0
  3 12  1  0
  4 13  1  0
  5 14  1  0
  5 15  1  0
  6 16  1  0
  6 17  1  0
  7 18  1  0
  7 19  1  0
  8 20  1  0
  9 21  1  0
M  END
