
     RDKit          3D

 17 19  0  0  0  0  0  0  0  0999 V2000
   -1.2170    1.0601   -1.7511 O   0  0  0  0  0  0  0  0  0  0  0  0
   -1.3010    0.8686   -0.3864 C   0  0  0  0  0  0  0  0  0  0  0  0
   -1.8285   -0.5132    0.0125 C   0  0  0  0  0  0  0  0  0  0  0  0
   -1.1051   -1.6266   -0.3971 O   0  0  0  0  0  0  0  0  0  0  0  0
   -0.6949   -0.8022    0.6852 C   0  0  0  0  0  0  0  0  0  0  0  0
    0.0440    0.4144    0.2120 C   0  0  0  0  0  0  0  0  0  0  0  0
    1.0700    0.0782   -0.8124 C   0  0  0  0  0  0  0  0  0  0  0  0
    2.3792   -0.3477   -0.5588 C   0  0  0  0  0  0  0  0  0  0  0  0
    1.3965   -1.3715   -0.7641 O   0  0  0  0  0  0  0  0  0  0  0  0
   -0.6958    1.8990   -1.8895 H   0  0  0  0  0  0  0  0  0  0  0  0
   -1.8115    1.6434    0.2000 H   0  0  0  0  0  0  0  0  0  0  0  0
   -2.8944   -0.6700    0.1265 H   0  0  0  0  0  0  0  0  0  0  0  0
   -0.4150   -1.3271    1.5987 H   0  0  0  0  0  0  0  0  0  0  0  0
    0.3947    1.1031    1.0095 H   0  0  0  0  0  0  0  0  0  0  0  0
    0.7382    0.2689   -1.8748 H   0  0  0  0  0  0  0  0  0  0  0  0
    2.8134   -0.3048    0.4651 H   0  0  0  0  0  0  0  0  0  0  0  0
    3.1271   -0.3726   -1.3803 H   0  0  0  0  0  0  0  0  0  0  0  0
  1  2  1  0
  2  3  1  0
  3  4  1  0
  4  5  1  0
  5  6  1  0
  6  7  1  0
  7  8  1  0
  8  9  1  0
  6  2  1  0
  9  7  1  0
  5  3  1  0
  1 10  1  0
  2 11  1  0
  3 12  1  0
  5 13  1  0
  6 14  1  0
  7 15  1  0
  8 16  1  0
  8 17  1  0
M  END
