
     RDKit          3D

 17 19  0  0  0  0  0  0  0  0999 V2000
    2.2626   -0.3969   -0.8535 O   0  0  0  0  0  0  0  0  0  0  0  0
    1.4747    0.3697   -0.0456 C   0  0  0  0  0  0  0  0  0  0  0  0
    0.1941    0.8927   -0.7168 C   0  0  0  0  0  0  0  0  0  0  0  0
   -0.3602   -0.0995   -1.5170 O   0  0  0  0  0  0  0  0  0  0  0  0
   -0.9893   -1.0058   -0.6521 C   0  0  0  0  0  0  0  0  0  0  0  0
   -1.7103   -0.0108    0.2776 C   0  0  0  0  0  0  0  0  0  0  0  0
   -0.4582    0.7553    0.6246 C   0  0  0  0  0  0  0  0  0  0  0  0
    0.5112   -0.4043    0.8618 C   0  0  0  0  0  0  0  0  0  0  0  0
   -0.0285   -1.5015    0.1982 O   0  0  0  0  0  0  0  0  0  0  0  0
    2.7088   -1.1542   -0.4349 H   0  0  0  0  0  0  0  0  0  0  0  0
    1.9412    1.2006    0.5033 H   0  0  0  0  0  0  0  0  0  0  0  0
    0.2794    1.8869   -1.1448 H   0  0  0  0  0  0  0  0  0  0  0  0
   -1.6381   -1.7025   -1.1246 H   0  0  0  0  0  0  0  0  0  0  0  0
   -2.1810   -0.5076    1.1215 H   0  0  0  0  0  0  0  0  0  0  0  0
   -2.3611    0.6704   -0.2953 H   0  0  0  0  0  0  0  0  0  0  0  0
   -0.4804    1.5502    1.3153 H   0  0  0  0  0  0  0  0  0  0  0  0
    0.8351   -0.5428    1.8824 H   0  0  0  0  0  0  0  0  0  0  0  0
  1  2  1  0
  2  3  1  0
  3  4  1  0
  4  5  1  0
  5  6  1  0
  6  7  1  0
  7  8  1  0
  8  9  1  0
  8  2  1  0
  7  3  1  0
  9  5  1  0
  1 10  1  0
  2 11  1  0
  3 12  1  0
  5 13  1  0
  6 14  1  0
  6 15  1  0
  7 16  1  0
  8 17  1  0
M  END
