
     RDKit          3D

 19 20  0  0  0  0  0  0  0  0999 V2000
   -2.7358    0.5669   -0.1643 O   0  0  0  0  0  0  0  0  0  0  0  0
   -1.5583    0.0249    0.2777 C   0  0  0  0  0  0  0  0  0  0  0  0
   -1.1038   -1.0151   -0.7103 C   0  0  0  0  0  0  0  0  0  0  0  0
    0.0887   -1.5930   -0.4229 O   0  0  0  0  0  0  0  0  0  0  0  0
    0.9639   -0.9178    0.3400 C   0  0  0  0  0  0  0  0  0  0  0  0
    1.7996    0.1206   -0.4301 C   0  0  0  0  0  0  0  0  0  0  0  0
    3.1732    0.1549   -0.0945 O   0  0  0  0  0  0  0  0  0  0  0  0
    0.8066    0.4885    0.5963 C   0  0  0  0  0  0  0  0  0  0  0  0
   -0.5016    1.1241    0.2785 C   0  0  0  0  0  0  0  0  0  0  0  0
   -2.9853    1.2955    0.4797 H   0  0  0  0  0  0  0  0  0  0  0  0
   -1.5853   -0.4196    1.2762 H   0  0  0  0  0  0  0  0  0  0  0  0
   -1.1220   -0.5340   -1.7299 H   0  0  0  0  0  0  0  0  0  0  0  0
   -1.9342   -1.7784   -0.7667 H   0  0  0  0  0  0  0  0  0  0  0  0
    1.5212   -1.5439    1.0956 H   0  0  0  0  0  0  0  0  0  0  0  0
    1.6352    0.2301   -1.5054 H   0  0  0  0  0  0  0  0  0  0  0  0
    3.6418   -0.6401   -0.4679 H   0  0  0  0  0  0  0  0  0  0  0  0
    1.2619    0.8867    1.5522 H   0  0  0  0  0  0  0  0  0  0  0  0
   -0.8469    1.8546    1.0646 H   0  0  0  0  0  0  0  0  0  0  0  0
   -0.5189    1.6955   -0.6687 H   0  0  0  0  0  0  0  0  0  0  0  0
  1  2  1  0
  2  3  1  0
  3  4  1  0
  4  5  1  0
  5  6  1  0
  6  7  1  0
  6  8  1  0
  8  9  1  0
  9  2  1  0
  8  5  1  0
  1 10  1  0
  2 11  1  0
  3 12  1  0
  3 13  1  0
  5 14  1  0
  6 15  1  0
  7 16  1  0
  8 17  1  0
  9 18  1  0
  9 19  1  0
M  END
