
     RDKit          3D

 17 19  0  0  0  0  0  0  0  0999 V2000
    2.5894    1.0797    0.2594 O   0  0  0  0  0  0  0  0  0  0  0  0
    1.7241   -0.0414    0.2529 C   0  0  0  0  0  0  0  0  0  0  0  0
    0.4254   -0.0420    0.7205 C   0  0  0  0  0  0  0  0  0  0  0  0
   -0.7663   -0.9011    0.7144 C   0  0  0  0  0  0  0  0  0  0  0  0
   -1.9529    0.0159    0.7257 C   0  0  0  0  0  0  0  0  0  0  0  0
   -1.6109    0.8260   -0.2624 C   0  0  0  0  0  0  0  0  0  0  0  0
   -0.6689    0.0459   -1.1082 C   0  0  0  0  0  0  0  0  0  0  0  0
   -1.0435   -1.2680   -0.6425 O   0  0  0  0  0  0  0  0  0  0  0  0
    0.7458   -0.0123   -0.7926 C   0  0  0  0  0  0  0  0  0  0  0  0
    3.3512    0.8499   -0.3489 H   0  0  0  0  0  0  0  0  0  0  0  0
    2.3422   -0.9209    0.6161 H   0  0  0  0  0  0  0  0  0  0  0  0
    0.1831    1.0096    1.1045 H   0  0  0  0  0  0  0  0  0  0  0  0
   -0.8252   -1.7229    1.3896 H   0  0  0  0  0  0  0  0  0  0  0  0
   -2.7779   -0.0194    1.3526 H   0  0  0  0  0  0  0  0  0  0  0  0
   -1.9614    1.8616   -0.4166 H   0  0  0  0  0  0  0  0  0  0  0  0
   -0.8408    0.1564   -2.1738 H   0  0  0  0  0  0  0  0  0  0  0  0
    1.0866   -0.9170   -1.3906 H   0  0  0  0  0  0  0  0  0  0  0  0
  1  2  1  0
  2  3  1  0
  3  4  1  0
  4  5  1  0
  5  6  2  0
  6  7  1  0
  7  8  1  0
  7  9  1  0
  9  2  1  0
  9  3  1  0
  8  4  1  0
  1 10  1  0
  2 11  1  0
  3 12  1  0
  4 13  1  0
  5 14  1  0
  6 15  1  0
  7 16  1  0
  9 17  1  0
M  END
