
     RDKit          3D

 21 22  0  0  0  0  0  0  0  0999 V2000
    2.4267    0.1421    1.3805 O   0  0  0  0  0  0  0  0  0  0  0  0
    1.8222   -0.6505    0.4337 C   0  0  0  0  0  0  0  0  0  0  0  0
    1.8866   -0.3626   -1.0129 C   0  0  0  0  0  0  0  0  0  0  0  0
    0.6291   -0.1032   -0.2272 C   0  0  0  0  0  0  0  0  0  0  0  0
    0.1627    1.2767   -0.0135 C   0  0  0  0  0  0  0  0  0  0  0  0
   -1.1018    1.5644    0.2213 C   0  0  0  0  0  0  0  0  0  0  0  0
   -2.1870    0.5613    0.2979 C   0  0  0  0  0  0  0  0  0  0  0  0
   -1.5896   -0.8148    0.4723 C   0  0  0  0  0  0  0  0  0  0  0  0
   -0.5373   -0.9937   -0.5949 C   0  0  0  0  0  0  0  0  0  0  0  0
    3.1919    0.6674    1.0558 H   0  0  0  0  0  0  0  0  0  0  0  0
    1.7842   -1.7319    0.7198 H   0  0  0  0  0  0  0  0  0  0  0  0
    2.3618    0.5429   -1.4228 H   0  0  0  0  0  0  0  0  0  0  0  0
    1.9074   -1.2239   -1.7251 H   0  0  0  0  0  0  0  0  0  0  0  0
    0.9021    2.0720   -0.0545 H   0  0  0  0  0  0  0  0  0  0  0  0
   -1.3765    2.6050    0.3699 H   0  0  0  0  0  0  0  0  0  0  0  0
   -2.8379    0.8552    1.1545 H   0  0  0  0  0  0  0  0  0  0  0  0
   -2.8291    0.6205   -0.6102 H   0  0  0  0  0  0  0  0  0  0  0  0
   -1.0833   -0.8129    1.4766 H   0  0  0  0  0  0  0  0  0  0  0  0
   -2.3366   -1.6087    0.3843 H   0  0  0  0  0  0  0  0  0  0  0  0
   -0.9640   -0.5800   -1.5528 H   0  0  0  0  0  0  0  0  0  0  0  0
   -0.2317   -2.0256   -0.7527 H   0  0  0  0  0  0  0  0  0  0  0  0
  1  2  1  0
  2  3  1  0
  3  4  1  0
  4  5  1  0
  5  6  2  0
  6  7  1  0
  7  8  1  0
  8  9  1  0
  4  2  1  0
  9  4  1  0
  1 10  1  0
  2 11  1  0
  3 12  1  0
  3 13  1  0
  5 14  1  0
  6 15  1  0
  7 16  1  0
  7 17  1  0
  8 18  1  0
  8 19  1  0
  9 20  1  0
  9 21  1  0
M  END
