
     RDKit          3D

 17 18  0  0  0  0  0  0  0  0999 V2000
    0.2109   -2.0784    0.5280 O   0  0  0  0  0  0  0  0  0  0  0  0
    0.2586   -0.7255    0.7021 C   0  0  0  0  0  0  0  0  0  0  0  0
   -0.9399    0.0468    0.1290 C   0  0  0  0  0  0  0  0  0  0  0  0
   -2.1550   -0.4049    0.3384 O   0  0  0  0  0  0  0  0  0  0  0  0
   -0.5426    1.4264    0.4819 C   0  0  0  0  0  0  0  0  0  0  0  0
    0.7562    1.4598    0.1359 C   0  0  0  0  0  0  0  0  0  0  0  0
    0.9878    0.0639   -0.3657 C   0  0  0  0  0  0  0  0  0  0  0  0
    2.1589   -0.3081   -0.8147 O   0  0  0  0  0  0  0  0  0  0  0  0
   -0.2668   -0.1100   -1.2142 C   0  0  0  0  0  0  0  0  0  0  0  0
   -0.4425   -2.3904   -0.1394 H   0  0  0  0  0  0  0  0  0  0  0  0
    0.4756   -0.4188    1.7270 H   0  0  0  0  0  0  0  0  0  0  0  0
   -2.6105    0.0983    1.0615 H   0  0  0  0  0  0  0  0  0  0  0  0
   -1.1818    2.1835    0.9112 H   0  0  0  0  0  0  0  0  0  0  0  0
    1.4646    2.2690    0.1954 H   0  0  0  0  0  0  0  0  0  0  0  0
    2.6784   -0.8160   -0.1173 H   0  0  0  0  0  0  0  0  0  0  0  0
   -0.3756   -1.0681   -1.7063 H   0  0  0  0  0  0  0  0  0  0  0  0
   -0.4762    0.7723   -1.8528 H   0  0  0  0  0  0  0  0  0  0  0  0
  1  2  1  0
  2  3  1  0
  3  4  1  0
  3  5  1  0
  5  6  2  0
  6  7  1  0
  7  8  1  0
  7  9  1  0
  7  2  1  0
  9  3  1  0
  1 10  1  0
  2 11  1  0
  4 12  1  0
  5 13  1  0
  6 14  1  0
  8 15  1  0
  9 16  1  0
  9 17  1  0
M  END
