
     RDKit          3D

 15 16  0  0  0  0  0  0  0  0999 V2000
   -1.7816    0.8925    1.1176 O   0  0  0  0  0  0  0  0  0  0  0  0
   -1.0453   -0.2588    0.7838 C   0  0  0  0  0  0  0  0  0  0  0  0
   -1.0559   -0.5590   -0.7289 C   0  0  0  0  0  0  0  0  0  0  0  0
    0.1299   -0.1659   -0.0317 C   0  0  0  0  0  0  0  0  0  0  0  0
    1.4060   -0.8598    0.0790 C   0  0  0  0  0  0  0  0  0  0  0  0
    2.0175    0.3880    0.3329 O   0  0  0  0  0  0  0  0  0  0  0  0
    0.9249    1.0734   -0.2374 C   0  0  0  0  0  0  0  0  0  0  0  0
   -1.5950    1.6427    0.4911 H   0  0  0  0  0  0  0  0  0  0  0  0
   -1.2109   -1.0923    1.4774 H   0  0  0  0  0  0  0  0  0  0  0  0
   -1.5699    0.1533   -1.3913 H   0  0  0  0  0  0  0  0  0  0  0  0
   -1.2778   -1.6178   -0.9557 H   0  0  0  0  0  0  0  0  0  0  0  0
    1.5795   -1.5966    0.8681 H   0  0  0  0  0  0  0  0  0  0  0  0
    1.7643   -1.2314   -0.9258 H   0  0  0  0  0  0  0  0  0  0  0  0
    1.1858    1.3339   -1.2735 H   0  0  0  0  0  0  0  0  0  0  0  0
    0.5284    1.8978    0.3945 H   0  0  0  0  0  0  0  0  0  0  0  0
  1  2  1  0
  2  3  1  0
  3  4  1  0
  4  5  1  0
  5  6  1  0
  6  7  1  0
  4  2  1  0
  7  4  1  0
  1  8  1  0
  2  9  1  0
  3 10  1  0
  3 11  1  0
  5 12  1  0
  5 13  1  0
  7 14  1  0
  7 15  1  0
M  END
