
     RDKit          3D

 17 19  0  0  0  0  0  0  0  0999 V2000
   -2.4461   -0.5057    0.4485 O   0  0  0  0  0  0  0  0  0  0  0  0
   -1.3054    0.2344    0.6070 C   0  0  0  0  0  0  0  0  0  0  0  0
   -0.1330   -0.6265    0.9636 C   0  0  0  0  0  0  0  0  0  0  0  0
   -0.1521   -1.1009   -0.4600 C   0  0  0  0  0  0  0  0  0  0  0  0
    1.1531   -1.3345   -0.8324 O   0  0  0  0  0  0  0  0  0  0  0  0
    1.8306   -0.2335   -0.2510 C   0  0  0  0  0  0  0  0  0  0  0  0
    0.7206    0.4811    0.4163 C   0  0  0  0  0  0  0  0  0  0  0  0
    0.9134    1.5916    1.1197 O   0  0  0  0  0  0  0  0  0  0  0  0
   -0.4020    0.3849   -0.5693 C   0  0  0  0  0  0  0  0  0  0  0  0
   -3.0535   -0.1869   -0.2697 H   0  0  0  0  0  0  0  0  0  0  0  0
   -1.3690    1.1613    1.1891 H   0  0  0  0  0  0  0  0  0  0  0  0
    0.0161   -1.1650    1.7902 H   0  0  0  0  0  0  0  0  0  0  0  0
   -0.9264   -1.7721   -0.7769 H   0  0  0  0  0  0  0  0  0  0  0  0
    2.5666   -0.5634    0.4974 H   0  0  0  0  0  0  0  0  0  0  0  0
    2.2789    0.3163   -1.1037 H   0  0  0  0  0  0  0  0  0  0  0  0
    0.8457    2.4098    0.5586 H   0  0  0  0  0  0  0  0  0  0  0  0
   -0.5375    0.9093   -1.4081 H   0  0  0  0  0  0  0  0  0  0  0  0
  1  2  1  0
  2  3  1  0
  3  4  1  0
  4  5  1  0
  5  6  1  0
  6  7  1  0
  7  8  1  0
  7  9  1  0
  9  2  1  0
  7  3  1  0
  9  4  1  0
  1 10  1  0
  2 11  1  0
  3 12  1  0
  4 13  1  0
  6 14  1  0
  6 15  1  0
  8 16  1  0
  9 17  1  0
M  END
