
     RDKit          3D

 17 18  0  0  0  0  0  0  0  0999 V2000
    0.2520    0.0992    2.0255 O   0  0  0  0  0  0  0  0  0  0  0  0
   -0.2355   -0.4346    0.8740 C   0  0  0  0  0  0  0  0  0  0  0  0
    0.8854   -0.8753   -0.0886 C   0  0  0  0  0  0  0  0  0  0  0  0
    0.0166   -1.1049   -1.3048 C   0  0  0  0  0  0  0  0  0  0  0  0
   -0.9744   -0.2204   -1.2898 C   0  0  0  0  0  0  0  0  0  0  0  0
   -0.7260    0.6462   -0.1149 C   0  0  0  0  0  0  0  0  0  0  0  0
   -1.7311    1.3927    0.3259 O   0  0  0  0  0  0  0  0  0  0  0  0
    0.5725    1.3278   -0.3632 C   0  0  0  0  0  0  0  0  0  0  0  0
    1.5599    0.4091   -0.2978 C   0  0  0  0  0  0  0  0  0  0  0  0
    0.1329   -0.5879    2.7527 H   0  0  0  0  0  0  0  0  0  0  0  0
   -0.9440   -1.2512    0.9677 H   0  0  0  0  0  0  0  0  0  0  0  0
    1.4458   -1.7073    0.2325 H   0  0  0  0  0  0  0  0  0  0  0  0
    0.1679   -1.8585   -2.0635 H   0  0  0  0  0  0  0  0  0  0  0  0
   -1.7923   -0.1414   -1.9825 H   0  0  0  0  0  0  0  0  0  0  0  0
   -1.9759    1.3036    1.2783 H   0  0  0  0  0  0  0  0  0  0  0  0
    0.7237    2.3845   -0.5650 H   0  0  0  0  0  0  0  0  0  0  0  0
    2.6223    0.6184   -0.3866 H   0  0  0  0  0  0  0  0  0  0  0  0
  1  2  1  0
  2  3  1  0
  3  4  1  0
  4  5  2  0
  5  6  1  0
  6  7  1  0
  6  8  1  0
  8  9  2  0
  6  2  1  0
  9  3  1  0
  1 10  1  0
  2 11  1  0
  3 12  1  0
  4 13  1  0
  5 14  1  0
  7 15  1  0
  8 16  1  0
  9 17  1  0
M  END
