
     RDKit          3D

 17 19  0  0  0  0  0  0  0  0999 V2000
    1.7997   -0.3779    0.7273 O   0  0  0  0  0  0  0  0  0  0  0  0
    1.1500   -0.0013   -0.4519 C   0  0  0  0  0  0  0  0  0  0  0  0
    0.1471   -1.0137   -0.9156 C   0  0  0  0  0  0  0  0  0  0  0  0
    0.0067   -2.0960   -0.0165 O   0  0  0  0  0  0  0  0  0  0  0  0
   -1.0328   -1.1882   -0.1052 C   0  0  0  0  0  0  0  0  0  0  0  0
   -1.1804   -0.0863    0.8991 C   0  0  0  0  0  0  0  0  0  0  0  0
   -0.7782    1.2564    0.3341 C   0  0  0  0  0  0  0  0  0  0  0  0
    0.3598    1.8524    1.0360 O   0  0  0  0  0  0  0  0  0  0  0  0
    0.5336    1.3438   -0.2360 C   0  0  0  0  0  0  0  0  0  0  0  0
    2.7121   -0.7339    0.5375 H   0  0  0  0  0  0  0  0  0  0  0  0
    1.9423    0.0828   -1.2395 H   0  0  0  0  0  0  0  0  0  0  0  0
    0.0744   -1.2215   -2.0001 H   0  0  0  0  0  0  0  0  0  0  0  0
   -1.9401   -1.6116   -0.5940 H   0  0  0  0  0  0  0  0  0  0  0  0
   -0.6909   -0.3079    1.8715 H   0  0  0  0  0  0  0  0  0  0  0  0
   -2.2811   -0.0034    1.1280 H   0  0  0  0  0  0  0  0  0  0  0  0
   -1.5483    1.9869    0.0389 H   0  0  0  0  0  0  0  0  0  0  0  0
    0.7260    2.1193   -1.0139 H   0  0  0  0  0  0  0  0  0  0  0  0
  1  2  1  0
  2  3  1  0
  3  4  1  0
  4  5  1  0
  5  6  1  0
  6  7  1  0
  7  8  1  0
  8  9  1  0
  9  2  1  0
  5  3  1  0
  9  7  1  0
  1 10  1  0
  2 11  1  0
  3 12  1  0
  5 13  1  0
  6 14  1  0
  6 15  1  0
  7 16  1  0
  9 17  1  0
M  END
