
     RDKit          3D

 23 24  0  0  0  0  0  0  0  0999 V2000
    1.5899   -1.0913    1.4311 O   0  0  0  0  0  0  0  0  0  0  0  0
    1.4247   -0.6346    0.1097 C   0  0  0  0  0  0  0  0  0  0  0  0
    2.2355    0.6037   -0.2182 C   0  0  0  0  0  0  0  0  0  0  0  0
    0.9550    1.2514   -0.6937 C   0  0  0  0  0  0  0  0  0  0  0  0
    0.1590    0.1174   -0.1483 C   0  0  0  0  0  0  0  0  0  0  0  0
   -0.6825    0.4216    1.0569 C   0  0  0  0  0  0  0  0  0  0  0  0
   -1.9771   -0.3442    0.8850 C   0  0  0  0  0  0  0  0  0  0  0  0
   -2.1653   -0.2356   -0.6300 C   0  0  0  0  0  0  0  0  0  0  0  0
   -0.7585   -0.5917   -1.1039 C   0  0  0  0  0  0  0  0  0  0  0  0
    2.5532   -1.3206    1.5049 H   0  0  0  0  0  0  0  0  0  0  0  0
    1.5917   -1.4367   -0.6223 H   0  0  0  0  0  0  0  0  0  0  0  0
    2.9923    0.4156   -1.0186 H   0  0  0  0  0  0  0  0  0  0  0  0
    2.6668    1.0509    0.7012 H   0  0  0  0  0  0  0  0  0  0  0  0
    0.7779    2.2121   -0.1716 H   0  0  0  0  0  0  0  0  0  0  0  0
    0.9367    1.4102   -1.7803 H   0  0  0  0  0  0  0  0  0  0  0  0
   -0.1633    0.1113    1.9755 H   0  0  0  0  0  0  0  0  0  0  0  0
   -0.9217    1.4880    1.1284 H   0  0  0  0  0  0  0  0  0  0  0  0
   -2.8198    0.1350    1.3900 H   0  0  0  0  0  0  0  0  0  0  0  0
   -1.8133   -1.3998    1.1456 H   0  0  0  0  0  0  0  0  0  0  0  0
   -2.9227   -0.9238   -1.0082 H   0  0  0  0  0  0  0  0  0  0  0  0
   -2.4313    0.8019   -0.8650 H   0  0  0  0  0  0  0  0  0  0  0  0
   -0.5961   -0.3497   -2.1557 H   0  0  0  0  0  0  0  0  0  0  0  0
   -0.6311   -1.6911   -0.9126 H   0  0  0  0  0  0  0  0  0  0  0  0
  1  2  1  0
  2  3  1  0
  3  4  1  0
  4  5  1  0
  5  6  1  0
  6  7  1  0
  7  8  1  0
  8  9  1  0
  5  2  1  0
  9  5  1  0
  1 10  1  0
  2 11  1  0
  3 12  1  0
  3 13  1  0
  4 14  1  0
  4 15  1  0
  6 16  1  0
  6 17  1  0
  7 18  1  0
  7 19  1  0
  8 20  1  0
  8 21  1  0
  9 22  1  0
  9 23  1  0
M  END
