
     RDKit          3D

 23 24  0  0  0  0  0  0  0  0999 V2000
   -0.6439    1.9796    0.8099 O   0  0  0  0  0  0  0  0  0  0  0  0
   -0.6155    1.1031   -0.2904 C   0  0  0  0  0  0  0  0  0  0  0  0
   -2.0087    0.5047   -0.4603 C   0  0  0  0  0  0  0  0  0  0  0  0
   -1.8209   -0.9974   -0.2635 C   0  0  0  0  0  0  0  0  0  0  0  0
   -0.6544   -1.0294    0.6887 C   0  0  0  0  0  0  0  0  0  0  0  0
    0.2898   -0.0295    0.0706 C   0  0  0  0  0  0  0  0  0  0  0  0
    1.4571    0.3574    0.9233 C   0  0  0  0  0  0  0  0  0  0  0  0
    2.3648   -0.3917   -0.0200 C   0  0  0  0  0  0  0  0  0  0  0  0
    1.1975   -0.5466   -0.9876 C   0  0  0  0  0  0  0  0  0  0  0  0
    0.0351    2.7040    0.6940 H   0  0  0  0  0  0  0  0  0  0  0  0
   -0.2985    1.6772   -1.1779 H   0  0  0  0  0  0  0  0  0  0  0  0
   -2.6996    0.8896    0.3149 H   0  0  0  0  0  0  0  0  0  0  0  0
   -2.4222    0.6945   -1.4673 H   0  0  0  0  0  0  0  0  0  0  0  0
   -1.5619   -1.5134   -1.1949 H   0  0  0  0  0  0  0  0  0  0  0  0
   -2.7095   -1.3830    0.2519 H   0  0  0  0  0  0  0  0  0  0  0  0
   -1.0050   -0.6597    1.6702 H   0  0  0  0  0  0  0  0  0  0  0  0
   -0.1371   -1.9957    0.7272 H   0  0  0  0  0  0  0  0  0  0  0  0
    1.6586    1.4485    0.9055 H   0  0  0  0  0  0  0  0  0  0  0  0
    1.3569   -0.0846    1.9372 H   0  0  0  0  0  0  0  0  0  0  0  0
    3.1800    0.2243   -0.4218 H   0  0  0  0  0  0  0  0  0  0  0  0
    2.7216   -1.3504    0.4060 H   0  0  0  0  0  0  0  0  0  0  0  0
    1.0265   -1.6246   -1.1970 H   0  0  0  0  0  0  0  0  0  0  0  0
    1.2893    0.0234   -1.9188 H   0  0  0  0  0  0  0  0  0  0  0  0
  1  2  1  0
  2  3  1  0
  3  4  1  0
  4  5  1  0
  5  6  1  0
  6  7  1  0
  7  8  1  0
  8  9  1  0
  6  2  1  0
  9  6  1  0
  1 10  1  0
  2 11  1  0
  3 12  1  0
  3 13  1  0
  4 14  1  0
  4 15  1  0
  5 16  1  0
  5 17  1  0
  7 18  1  0
  7 19  1  0
  8 20  1  0
  8 21  1  0
  9 22  1  0
  9 23  1  0
M  END
