
     RDKit          3D

 18 19  0  0  0  0  0  0  0  0999 V2000
    1.4757    0.2324   -1.4072 O   0  0  0  0  0  0  0  0  0  0  0  0
    1.2757   -0.1794   -0.1135 C   0  0  0  0  0  0  0  0  0  0  0  0
    0.5500    0.8496    0.7636 C   0  0  0  0  0  0  0  0  0  0  0  0
   -0.4897    1.5283   -0.0444 C   0  0  0  0  0  0  0  0  0  0  0  0
   -1.2729    0.7492   -0.7801 C   0  0  0  0  0  0  0  0  0  0  0  0
   -1.1037   -0.7216   -0.7317 C   0  0  0  0  0  0  0  0  0  0  0  0
    0.0792   -1.0770    0.1214 C   0  0  0  0  0  0  0  0  0  0  0  0
   -0.0888   -0.3611    1.4571 C   0  0  0  0  0  0  0  0  0  0  0  0
    2.1880   -0.3168   -1.8188 H   0  0  0  0  0  0  0  0  0  0  0  0
    2.1425   -0.5549    0.4386 H   0  0  0  0  0  0  0  0  0  0  0  0
    1.1863    1.4638    1.3879 H   0  0  0  0  0  0  0  0  0  0  0  0
   -0.5923    2.6055   -0.0247 H   0  0  0  0  0  0  0  0  0  0  0  0
   -2.0392    1.1564   -1.4211 H   0  0  0  0  0  0  0  0  0  0  0  0
   -2.0089   -1.1295   -0.2216 H   0  0  0  0  0  0  0  0  0  0  0  0
   -1.0755   -1.1544   -1.7361 H   0  0  0  0  0  0  0  0  0  0  0  0
    0.2901   -2.1404    0.1827 H   0  0  0  0  0  0  0  0  0  0  0  0
    0.5938   -0.7983    2.1982 H   0  0  0  0  0  0  0  0  0  0  0  0
   -1.1102   -0.1518    1.7497 H   0  0  0  0  0  0  0  0  0  0  0  0
  1  2  1  0
  2  3  1  0
  3  4  1  0
  4  5  2  0
  5  6  1  0
  6  7  1  0
  7  8  1  0
  7  2  1  0
  8  3  1  0
  1  9  1  0
  2 10  1  0
  3 11  1  0
  4 12  1  0
  5 13  1  0
  6 14  1  0
  6 15  1  0
  7 16  1  0
  8 17  1  0
  8 18  1  0
M  END
