
     RDKit          3D

 16 17  0  0  0  0  0  0  0  0999 V2000
    2.3054    1.2425   -0.1209 O   0  0  0  0  0  0  0  0  0  0  0  0
    1.4174    0.3951    0.5006 C   0  0  0  0  0  0  0  0  0  0  0  0
    1.2251   -0.9600   -0.1750 C   0  0  0  0  0  0  0  0  0  0  0  0
   -0.2134   -0.8322    0.1858 C   0  0  0  0  0  0  0  0  0  0  0  0
   -1.1700   -0.9364   -0.8134 O   0  0  0  0  0  0  0  0  0  0  0  0
   -2.1194   -0.0142   -0.2710 C   0  0  0  0  0  0  0  0  0  0  0  0
   -1.2416    1.1796   -0.0493 C   0  0  0  0  0  0  0  0  0  0  0  0
   -0.0400    0.6822    0.1957 C   0  0  0  0  0  0  0  0  0  0  0  0
    2.5529    0.9709   -1.0325 H   0  0  0  0  0  0  0  0  0  0  0  0
    1.5220    0.2950    1.5961 H   0  0  0  0  0  0  0  0  0  0  0  0
    1.3766   -0.9646   -1.2545 H   0  0  0  0  0  0  0  0  0  0  0  0
    1.6972   -1.8060    0.3491 H   0  0  0  0  0  0  0  0  0  0  0  0
   -0.5181   -1.2218    1.1746 H   0  0  0  0  0  0  0  0  0  0  0  0
   -2.9506    0.1637   -0.9424 H   0  0  0  0  0  0  0  0  0  0  0  0
   -2.3709   -0.4159    0.7274 H   0  0  0  0  0  0  0  0  0  0  0  0
   -1.4726    2.2221   -0.0703 H   0  0  0  0  0  0  0  0  0  0  0  0
  1  2  1  0
  2  3  1  0
  3  4  1  0
  4  5  1  0
  5  6  1  0
  6  7  1  0
  7  8  2  0
  8  2  1  0
  8  4  1  0
  1  9  1  0
  2 10  1  0
  3 11  1  0
  3 12  1  0
  4 13  1  0
  6 14  1  0
  6 15  1  0
  7 16  1  0
M  END
