
     RDKit          3D

 17 19  0  0  0  0  0  0  0  0999 V2000
   -3.1594    0.7592   -0.8162 O   0  0  0  0  0  0  0  0  0  0  0  0
   -2.0731    0.7562    0.0438 C   0  0  0  0  0  0  0  0  0  0  0  0
   -1.4938   -0.5548    0.4200 C   0  0  0  0  0  0  0  0  0  0  0  0
   -0.3229   -0.5847    1.1539 O   0  0  0  0  0  0  0  0  0  0  0  0
    0.4299    0.1580    0.2545 C   0  0  0  0  0  0  0  0  0  0  0  0
    1.5098   -0.5840   -0.4598 C   0  0  0  0  0  0  0  0  0  0  0  0
    2.8913    0.0622   -0.2999 C   0  0  0  0  0  0  0  0  0  0  0  0
    2.5332   -1.1916    0.2569 O   0  0  0  0  0  0  0  0  0  0  0  0
   -0.7878    0.3124   -0.5964 C   0  0  0  0  0  0  0  0  0  0  0  0
   -3.3304   -0.1238   -1.1876 H   0  0  0  0  0  0  0  0  0  0  0  0
   -2.0262    1.5572    0.7997 H   0  0  0  0  0  0  0  0  0  0  0  0
   -1.9343   -1.5055    0.1062 H   0  0  0  0  0  0  0  0  0  0  0  0
    0.7386    1.1288    0.7283 H   0  0  0  0  0  0  0  0  0  0  0  0
    1.2801   -0.9802   -1.4520 H   0  0  0  0  0  0  0  0  0  0  0  0
    3.0213    0.8297    0.4907 H   0  0  0  0  0  0  0  0  0  0  0  0
    3.5332    0.0655   -1.1881 H   0  0  0  0  0  0  0  0  0  0  0  0
   -0.8095   -0.1047   -1.6201 H   0  0  0  0  0  0  0  0  0  0  0  0
  1  2  1  0
  2  3  1  0
  3  4  1  0
  4  5  1  0
  5  6  1  0
  6  7  1  0
  7  8  1  0
  5  9  1  0
  9  2  1  0
  9  3  1  0
  8  6  1  0
  1 10  1  0
  2 11  1  0
  3 12  1  0
  5 13  1  0
  6 14  1  0
  7 15  1  0
  7 16  1  0
  9 17  1  0
M  END
