
     RDKit          3D

 19 21  0  0  0  0  0  0  0  0999 V2000
    1.2269    0.7383   -1.6066 O   0  0  0  0  0  0  0  0  0  0  0  0
    1.0245    0.7969   -0.2520 C   0  0  0  0  0  0  0  0  0  0  0  0
    1.9831   -0.1648    0.4693 C   0  0  0  0  0  0  0  0  0  0  0  0
    1.8201   -0.1587    1.8289 O   0  0  0  0  0  0  0  0  0  0  0  0
    0.9196   -0.8423    1.0584 C   0  0  0  0  0  0  0  0  0  0  0  0
   -0.0603   -0.1005    0.2303 C   0  0  0  0  0  0  0  0  0  0  0  0
   -0.8561   -0.8487   -0.7568 C   0  0  0  0  0  0  0  0  0  0  0  0
   -2.0023    0.1325   -0.4774 C   0  0  0  0  0  0  0  0  0  0  0  0
   -1.2652    0.4647    0.8303 C   0  0  0  0  0  0  0  0  0  0  0  0
    1.9661    1.3126   -1.8960 H   0  0  0  0  0  0  0  0  0  0  0  0
    1.1159    1.7882    0.2211 H   0  0  0  0  0  0  0  0  0  0  0  0
    2.8841   -0.4934   -0.0295 H   0  0  0  0  0  0  0  0  0  0  0  0
    0.7893   -1.9017    1.3169 H   0  0  0  0  0  0  0  0  0  0  0  0
   -1.1268   -1.8662   -0.3689 H   0  0  0  0  0  0  0  0  0  0  0  0
   -0.5084   -0.8578   -1.7931 H   0  0  0  0  0  0  0  0  0  0  0  0
   -1.9280    0.9906   -1.1768 H   0  0  0  0  0  0  0  0  0  0  0  0
   -2.9810   -0.3215   -0.3515 H   0  0  0  0  0  0  0  0  0  0  0  0
   -1.3067    1.5102    1.1274 H   0  0  0  0  0  0  0  0  0  0  0  0
   -1.6949   -0.1782    1.6259 H   0  0  0  0  0  0  0  0  0  0  0  0
  1  2  1  0
  2  3  1  0
  3  4  1  0
  4  5  1  0
  5  6  1  0
  6  7  1  0
  7  8  1  0
  8  9  1  0
  6  2  1  0
  5  3  1  0
  9  6  1  0
  1 10  1  0
  2 11  1  0
  3 12  1  0
  5 13  1  0
  7 14  1  0
  7 15  1  0
  8 16  1  0
  8 17  1  0
  9 18  1  0
  9 19  1  0
M  END
