
     RDKit          3D

 21 22  0  0  0  0  0  0  0  0999 V2000
   -1.5992   -0.1790    1.6955 O   0  0  0  0  0  0  0  0  0  0  0  0
   -0.3491    0.0932    1.1791 C   0  0  0  0  0  0  0  0  0  0  0  0
    0.2836   -1.1249    0.5158 C   0  0  0  0  0  0  0  0  0  0  0  0
    1.6145   -0.6489   -0.0069 C   0  0  0  0  0  0  0  0  0  0  0  0
    1.8498    0.6444   -0.2136 C   0  0  0  0  0  0  0  0  0  0  0  0
    0.7238    1.5717   -0.5167 C   0  0  0  0  0  0  0  0  0  0  0  0
   -0.5803    0.9824   -0.0438 C   0  0  0  0  0  0  0  0  0  0  0  0
   -1.1647   -0.0053   -1.0125 C   0  0  0  0  0  0  0  0  0  0  0  0
   -0.6567   -1.3708   -0.6277 C   0  0  0  0  0  0  0  0  0  0  0  0
   -1.5850   -0.6120    2.5729 H   0  0  0  0  0  0  0  0  0  0  0  0
    0.3510    0.5329    1.8840 H   0  0  0  0  0  0  0  0  0  0  0  0
    0.3782   -1.9746    1.1859 H   0  0  0  0  0  0  0  0  0  0  0  0
    2.4249   -1.3330   -0.2332 H   0  0  0  0  0  0  0  0  0  0  0  0
    2.8796    0.9822   -0.1518 H   0  0  0  0  0  0  0  0  0  0  0  0
    0.6909    1.8020   -1.6185 H   0  0  0  0  0  0  0  0  0  0  0  0
    0.8377    2.5570   -0.0183 H   0  0  0  0  0  0  0  0  0  0  0  0
   -1.2945    1.7865    0.1701 H   0  0  0  0  0  0  0  0  0  0  0  0
   -2.2794   -0.0388   -0.8879 H   0  0  0  0  0  0  0  0  0  0  0  0
   -0.9694    0.2400   -2.0725 H   0  0  0  0  0  0  0  0  0  0  0  0
   -1.4599   -2.0676   -0.3429 H   0  0  0  0  0  0  0  0  0  0  0  0
   -0.0957   -1.8376   -1.4572 H   0  0  0  0  0  0  0  0  0  0  0  0
  1  2  1  0
  2  3  1  0
  3  4  1  0
  4  5  2  0
  5  6  1  0
  6  7  1  0
  7  8  1  0
  8  9  1  0
  7  2  1  0
  9  3  1  0
  1 10  1  0
  2 11  1  0
  3 12  1  0
  4 13  1  0
  5 14  1  0
  6 15  1  0
  6 16  1  0
  7 17  1  0
  8 18  1  0
  8 19  1  0
  9 20  1  0
  9 21  1  0
M  END
