
     RDKit          3D

 21 23  0  0  0  0  0  0  0  0999 V2000
    2.2758    1.4859    0.0715 O   0  0  0  0  0  0  0  0  0  0  0  0
    1.2688    0.8022   -0.5765 C   0  0  0  0  0  0  0  0  0  0  0  0
    1.0189   -0.5351    0.1339 C   0  0  0  0  0  0  0  0  0  0  0  0
    0.0337   -1.3954   -0.6563 C   0  0  0  0  0  0  0  0  0  0  0  0
   -1.2860   -0.7563   -0.2975 C   0  0  0  0  0  0  0  0  0  0  0  0
   -1.2585    0.6608   -0.7805 C   0  0  0  0  0  0  0  0  0  0  0  0
   -0.0817    1.2322    0.0170 C   0  0  0  0  0  0  0  0  0  0  0  0
    0.1967    0.2519    1.1202 C   0  0  0  0  0  0  0  0  0  0  0  0
   -1.0722   -0.5554    1.2114 C   0  0  0  0  0  0  0  0  0  0  0  0
    3.0266    0.8434    0.2416 H   0  0  0  0  0  0  0  0  0  0  0  0
    1.2989    0.7510   -1.6623 H   0  0  0  0  0  0  0  0  0  0  0  0
    1.9029   -1.0403    0.5029 H   0  0  0  0  0  0  0  0  0  0  0  0
    0.1063   -2.4487   -0.3651 H   0  0  0  0  0  0  0  0  0  0  0  0
    0.1707   -1.2356   -1.7542 H   0  0  0  0  0  0  0  0  0  0  0  0
   -2.1611   -1.3294   -0.5344 H   0  0  0  0  0  0  0  0  0  0  0  0
   -1.0821    0.6672   -1.8532 H   0  0  0  0  0  0  0  0  0  0  0  0
   -2.1399    1.2537   -0.4915 H   0  0  0  0  0  0  0  0  0  0  0  0
   -0.1586    2.2832    0.2785 H   0  0  0  0  0  0  0  0  0  0  0  0
    0.6585    0.5957    2.0199 H   0  0  0  0  0  0  0  0  0  0  0  0
   -0.8230   -1.5202    1.7046 H   0  0  0  0  0  0  0  0  0  0  0  0
   -1.8947   -0.0109    1.6701 H   0  0  0  0  0  0  0  0  0  0  0  0
  1  2  1  0
  2  3  1  0
  3  4  1  0
  4  5  1  0
  5  6  1  0
  6  7  1  0
  7  8  1  0
  8  9  1  0
  7  2  1  0
  8  3  1  0
  9  5  1  0
  1 10  1  0
  2 11  1  0
  3 12  1  0
  4 13  1  0
  4 14  1  0
  5 15  1  0
  6 16  1  0
  6 17  1  0
  7 18  1  0
  8 19  1  0
  9 20  1  0
  9 21  1  0
M  END
