
     RDKit          3D

 19 20  0  0  0  0  0  0  0  0999 V2000
    2.8360    0.6786    0.3222 O   0  0  0  0  0  0  0  0  0  0  0  0
    1.6822   -0.0583    0.1078 C   0  0  0  0  0  0  0  0  0  0  0  0
    0.9352    0.3120   -1.1662 C   0  0  0  0  0  0  0  0  0  0  0  0
    0.3406    0.5774    0.1834 C   0  0  0  0  0  0  0  0  0  0  0  0
    0.2910    1.9375    0.5638 O   0  0  0  0  0  0  0  0  0  0  0  0
   -0.8116   -0.2068    0.6528 C   0  0  0  0  0  0  0  0  0  0  0  0
   -1.1552   -1.4099   -0.1360 C   0  0  0  0  0  0  0  0  0  0  0  0
   -2.5258   -1.0965   -0.0965 O   0  0  0  0  0  0  0  0  0  0  0  0
   -2.1931    0.2465    0.2033 C   0  0  0  0  0  0  0  0  0  0  0  0
    3.5841    0.1762   -0.0905 H   0  0  0  0  0  0  0  0  0  0  0  0
    1.7899   -1.1270    0.3544 H   0  0  0  0  0  0  0  0  0  0  0  0
    1.2963    1.2114   -1.7257 H   0  0  0  0  0  0  0  0  0  0  0  0
    0.7037   -0.5375   -1.7957 H   0  0  0  0  0  0  0  0  0  0  0  0
    0.8725    2.0661    1.3540 H   0  0  0  0  0  0  0  0  0  0  0  0
   -0.8059   -0.3594    1.7711 H   0  0  0  0  0  0  0  0  0  0  0  0
   -0.9287   -2.3802    0.3857 H   0  0  0  0  0  0  0  0  0  0  0  0
   -0.8350   -1.5033   -1.1743 H   0  0  0  0  0  0  0  0  0  0  0  0
   -2.8449    0.6369    0.9980 H   0  0  0  0  0  0  0  0  0  0  0  0
   -2.2314    0.8363   -0.7117 H   0  0  0  0  0  0  0  0  0  0  0  0
  1  2  1  0
  2  3  1  0
  3  4  1  0
  4  5  1  0
  4  6  1  0
  6  7  1  0
  7  8  1  0
  8  9  1  0
  4  2  1  0
  9  6  1  0
  1 10  1  0
  2 11  1  0
  3 12  1  0
  3 13  1  0
  5 14  1  0
  6 15  1  0
  7 16  1  0
  7 17  1  0
  9 18  1  0
  9 19  1  0
M  END
