
     RDKit          3D

 19 20  0  0  0  0  0  0  0  0999 V2000
   -1.1530   -2.3031   -0.1041 O   0  0  0  0  0  0  0  0  0  0  0  0
   -0.5984   -1.0817   -0.3903 C   0  0  0  0  0  0  0  0  0  0  0  0
   -1.5425    0.0507    0.0735 C   0  0  0  0  0  0  0  0  0  0  0  0
   -0.5943    1.1893    0.5085 C   0  0  0  0  0  0  0  0  0  0  0  0
   -1.0370    2.3927   -0.0612 O   0  0  0  0  0  0  0  0  0  0  0  0
    0.6366    0.7583   -0.1895 C   0  0  0  0  0  0  0  0  0  0  0  0
    1.7665    0.0074    0.1571 C   0  0  0  0  0  0  0  0  0  0  0  0
    2.6230   -0.4833   -0.8574 O   0  0  0  0  0  0  0  0  0  0  0  0
    0.5884   -0.7086    0.4077 C   0  0  0  0  0  0  0  0  0  0  0  0
   -1.4733   -2.7474   -0.9442 H   0  0  0  0  0  0  0  0  0  0  0  0
   -0.4383   -0.9047   -1.4758 H   0  0  0  0  0  0  0  0  0  0  0  0
   -2.0173   -0.3085    0.9911 H   0  0  0  0  0  0  0  0  0  0  0  0
   -2.2115    0.3697   -0.7213 H   0  0  0  0  0  0  0  0  0  0  0  0
   -0.4980    1.2454    1.5905 H   0  0  0  0  0  0  0  0  0  0  0  0
   -0.5278    3.1130    0.4103 H   0  0  0  0  0  0  0  0  0  0  0  0
    0.4420    0.8301   -1.3062 H   0  0  0  0  0  0  0  0  0  0  0  0
    2.4035    0.3642    1.0109 H   0  0  0  0  0  0  0  0  0  0  0  0
    3.3386   -1.0162   -0.4424 H   0  0  0  0  0  0  0  0  0  0  0  0
    0.2929   -0.7672    1.5045 H   0  0  0  0  0  0  0  0  0  0  0  0
  1  2  1  0
  2  3  1  0
  3  4  1  0
  4  5  1  0
  4  6  1  0
  6  7  1  0
  7  8  1  0
  7  9  1  0
  9  2  1  0
  9  6  1  0
  1 10  1  0
  2 11  1  0
  3 12  1  0
  3 13  1  0
  4 14  1  0
  5 15  1  0
  6 16  1  0
  7 17  1  0
  8 18  1  0
  9 19  1  0
M  END
