
     RDKit          3D

 21 22  0  0  0  0  0  0  0  0999 V2000
    2.7533   -0.6769   -0.1513 O   0  0  0  0  0  0  0  0  0  0  0  0
    1.4520   -0.5399    0.3521 C   0  0  0  0  0  0  0  0  0  0  0  0
    1.1297    0.9048    0.6938 C   0  0  0  0  0  0  0  0  0  0  0  0
   -0.0747    0.8288   -0.1839 C   0  0  0  0  0  0  0  0  0  0  0  0
   -0.1198    1.7725   -1.2076 O   0  0  0  0  0  0  0  0  0  0  0  0
   -1.3997    0.6640    0.4765 C   0  0  0  0  0  0  0  0  0  0  0  0
   -2.0034   -0.5028   -0.2949 C   0  0  0  0  0  0  0  0  0  0  0  0
   -0.7954   -1.4203   -0.4229 C   0  0  0  0  0  0  0  0  0  0  0  0
    0.3691   -0.5116   -0.6949 C   0  0  0  0  0  0  0  0  0  0  0  0
    3.3405   -0.7103    0.6610 H   0  0  0  0  0  0  0  0  0  0  0  0
    1.2421   -1.2148    1.2130 H   0  0  0  0  0  0  0  0  0  0  0  0
    0.9697    1.0703    1.7674 H   0  0  0  0  0  0  0  0  0  0  0  0
    1.8602    1.6452    0.2716 H   0  0  0  0  0  0  0  0  0  0  0  0
    0.5823    2.4493   -0.9801 H   0  0  0  0  0  0  0  0  0  0  0  0
   -2.0351    1.5684    0.2918 H   0  0  0  0  0  0  0  0  0  0  0  0
   -1.3589    0.4335    1.5511 H   0  0  0  0  0  0  0  0  0  0  0  0
   -2.3106   -0.1888   -1.3023 H   0  0  0  0  0  0  0  0  0  0  0  0
   -2.7779   -1.0263    0.2782 H   0  0  0  0  0  0  0  0  0  0  0  0
   -0.9376   -2.2007   -1.1879 H   0  0  0  0  0  0  0  0  0  0  0  0
   -0.6380   -1.8475    0.5996 H   0  0  0  0  0  0  0  0  0  0  0  0
    0.7522   -0.4967   -1.7302 H   0  0  0  0  0  0  0  0  0  0  0  0
  1  2  1  0
  2  3  1  0
  3  4  1  0
  4  5  1  0
  4  6  1  0
  6  7  1  0
  7  8  1  0
  8  9  1  0
  9  2  1  0
  9  4  1  0
  1 10  1  0
  2 11  1  0
  3 12  1  0
  3 13  1  0
  5 14  1  0
  6 15  1  0
  6 16  1  0
  7 17  1  0
  7 18  1  0
  8 19  1  0
  8 20  1  0
  9 21  1  0
M  END
