
     RDKit          3D

 21 22  0  0  0  0  0  0  0  0999 V2000
    2.9822    0.6747   -0.2381 O   0  0  0  0  0  0  0  0  0  0  0  0
    2.1816   -0.4623   -0.0723 C   0  0  0  0  0  0  0  0  0  0  0  0
    1.0717   -0.1466    0.9139 C   0  0  0  0  0  0  0  0  0  0  0  0
    0.2313    0.2964   -0.2664 C   0  0  0  0  0  0  0  0  0  0  0  0
   -1.1916   -0.1919   -0.1435 C   0  0  0  0  0  0  0  0  0  0  0  0
   -1.3594   -1.5744   -0.0805 O   0  0  0  0  0  0  0  0  0  0  0  0
   -2.0552    0.6846    0.7542 C   0  0  0  0  0  0  0  0  0  0  0  0
   -2.3252    0.5730   -0.6958 C   0  0  0  0  0  0  0  0  0  0  0  0
    1.1219   -0.5180   -1.1531 C   0  0  0  0  0  0  0  0  0  0  0  0
    3.0401    1.2141    0.5864 H   0  0  0  0  0  0  0  0  0  0  0  0
    2.7154   -1.3879    0.1350 H   0  0  0  0  0  0  0  0  0  0  0  0
    1.2971    0.6755    1.6184 H   0  0  0  0  0  0  0  0  0  0  0  0
    0.6352   -1.0640    1.3806 H   0  0  0  0  0  0  0  0  0  0  0  0
    0.3554    1.3696   -0.4358 H   0  0  0  0  0  0  0  0  0  0  0  0
   -1.2957   -1.8571    0.8675 H   0  0  0  0  0  0  0  0  0  0  0  0
   -2.6491    0.1354    1.5079 H   0  0  0  0  0  0  0  0  0  0  0  0
   -1.6369    1.6354    1.1286 H   0  0  0  0  0  0  0  0  0  0  0  0
   -3.2273    0.0215   -1.0518 H   0  0  0  0  0  0  0  0  0  0  0  0
   -2.0797    1.4320   -1.3463 H   0  0  0  0  0  0  0  0  0  0  0  0
    1.4689    0.0192   -2.0814 H   0  0  0  0  0  0  0  0  0  0  0  0
    0.7193   -1.5289   -1.3272 H   0  0  0  0  0  0  0  0  0  0  0  0
  1  2  1  0
  2  3  1  0
  3  4  1  0
  4  5  1  0
  5  6  1  0
  5  7  1  0
  7  8  1  0
  4  9  1  0
  9  2  1  0
  8  5  1  0
  1 10  1  0
  2 11  1  0
  3 12  1  0
  3 13  1  0
  4 14  1  0
  6 15  1  0
  7 16  1  0
  7 17  1  0
  8 18  1  0
  8 19  1  0
  9 20  1  0
  9 21  1  0
M  END
