
     RDKit          3D

 19 21  0  0  0  0  0  0  0  0999 V2000
   -2.2969   -1.2523   -0.0087 O   0  0  0  0  0  0  0  0  0  0  0  0
   -2.1737    0.0779    0.3444 C   0  0  0  0  0  0  0  0  0  0  0  0
   -1.1878    0.9048   -0.3760 C   0  0  0  0  0  0  0  0  0  0  0  0
   -0.0175    0.2528   -1.0557 C   0  0  0  0  0  0  0  0  0  0  0  0
    0.8762   -0.1132    0.0818 C   0  0  0  0  0  0  0  0  0  0  0  0
    2.2900    0.2745   -0.0230 C   0  0  0  0  0  0  0  0  0  0  0  0
    1.9149   -1.1753   -0.0424 C   0  0  0  0  0  0  0  0  0  0  0  0
    0.1592   -0.0979    1.2408 O   0  0  0  0  0  0  0  0  0  0  0  0
   -1.0034    0.6116    1.0523 C   0  0  0  0  0  0  0  0  0  0  0  0
   -2.7228   -1.7480    0.7219 H   0  0  0  0  0  0  0  0  0  0  0  0
   -3.1575    0.5615    0.5861 H   0  0  0  0  0  0  0  0  0  0  0  0
   -1.4542    1.9605   -0.6488 H   0  0  0  0  0  0  0  0  0  0  0  0
    0.4752    1.0419   -1.6803 H   0  0  0  0  0  0  0  0  0  0  0  0
   -0.2878   -0.6033   -1.6925 H   0  0  0  0  0  0  0  0  0  0  0  0
    2.6458    0.6481   -1.0218 H   0  0  0  0  0  0  0  0  0  0  0  0
    2.8724    0.6992    0.8058 H   0  0  0  0  0  0  0  0  0  0  0  0
    2.1998   -1.7176    0.8964 H   0  0  0  0  0  0  0  0  0  0  0  0
    1.9984   -1.7821   -0.9502 H   0  0  0  0  0  0  0  0  0  0  0  0
   -1.1302    1.4568    1.7699 H   0  0  0  0  0  0  0  0  0  0  0  0
  1  2  1  0
  2  3  1  0
  3  4  1  0
  4  5  1  0
  5  6  1  0
  6  7  1  0
  5  8  1  0
  8  9  1  0
  9  2  1  0
  9  3  1  0
  7  5  1  0
  1 10  1  0
  2 11  1  0
  3 12  1  0
  4 13  1  0
  4 14  1  0
  6 15  1  0
  6 16  1  0
  7 17  1  0
  7 18  1  0
  9 19  1  0
M  END
