
     RDKit          3D

 15 16  0  0  0  0  0  0  0  0999 V2000
   -1.4785    1.0629   -1.1736 O   0  0  0  0  0  0  0  0  0  0  0  0
   -0.7061    0.7107   -0.0881 C   0  0  0  0  0  0  0  0  0  0  0  0
   -1.2034   -0.6320    0.4699 C   0  0  0  0  0  0  0  0  0  0  0  0
   -0.0745   -1.0418    1.1821 O   0  0  0  0  0  0  0  0  0  0  0  0
    0.9170   -0.9404    0.1915 C   0  0  0  0  0  0  0  0  0  0  0  0
    1.8136    0.2281    0.3553 C   0  0  0  0  0  0  0  0  0  0  0  0
    0.6551    0.2998   -0.5772 C   0  0  0  0  0  0  0  0  0  0  0  0
   -2.4412    1.0774   -0.9810 H   0  0  0  0  0  0  0  0  0  0  0  0
   -0.7046    1.4175    0.7341 H   0  0  0  0  0  0  0  0  0  0  0  0
   -2.0839   -0.5007    1.0939 H   0  0  0  0  0  0  0  0  0  0  0  0
   -1.3413   -1.3288   -0.3858 H   0  0  0  0  0  0  0  0  0  0  0  0
    1.2518   -1.8227   -0.3444 H   0  0  0  0  0  0  0  0  0  0  0  0
    1.7060    0.9087    1.2354 H   0  0  0  0  0  0  0  0  0  0  0  0
    2.8064    0.1439   -0.0796 H   0  0  0  0  0  0  0  0  0  0  0  0
    0.8836    0.4175   -1.6325 H   0  0  0  0  0  0  0  0  0  0  0  0
  1  2  1  0
  2  3  1  0
  3  4  1  0
  4  5  1  0
  5  6  1  0
  6  7  1  0
  7  2  1  0
  7  5  1  0
  1  8  1  0
  2  9  1  0
  3 10  1  0
  3 11  1  0
  5 12  1  0
  6 13  1  0
  6 14  1  0
  7 15  1  0
M  END
