
     RDKit          3D

 20 21  0  0  0  0  0  0  0  0999 V2000
   -2.3531    0.9806   -0.8848 O   0  0  0  0  0  0  0  0  0  0  0  0
   -1.8526    0.2842    0.1975 C   0  0  0  0  0  0  0  0  0  0  0  0
   -1.5922   -1.1629    0.1656 C   0  0  0  0  0  0  0  0  0  0  0  0
   -0.4709   -0.2152    0.0821 C   0  0  0  0  0  0  0  0  0  0  0  0
    0.4525    0.0534    1.2204 C   0  0  0  0  0  0  0  0  0  0  0  0
    1.8176    0.3080    0.6578 C   0  0  0  0  0  0  0  0  0  0  0  0
    1.7540    0.0887   -0.8258 C   0  0  0  0  0  0  0  0  0  0  0  0
    0.3124   -0.1837   -1.1789 C   0  0  0  0  0  0  0  0  0  0  0  0
   -2.2410    1.9540   -0.6789 H   0  0  0  0  0  0  0  0  0  0  0  0
   -2.2023    0.6966    1.1786 H   0  0  0  0  0  0  0  0  0  0  0  0
   -1.6659   -1.7320    1.1278 H   0  0  0  0  0  0  0  0  0  0  0  0
   -1.9456   -1.7311   -0.7047 H   0  0  0  0  0  0  0  0  0  0  0  0
    0.1155    0.9812    1.7247 H   0  0  0  0  0  0  0  0  0  0  0  0
    0.3977   -0.7815    1.9259 H   0  0  0  0  0  0  0  0  0  0  0  0
    2.5130   -0.4442    1.1064 H   0  0  0  0  0  0  0  0  0  0  0  0
    2.2117    1.3226    0.9225 H   0  0  0  0  0  0  0  0  0  0  0  0
    2.4380   -0.7287   -1.1310 H   0  0  0  0  0  0  0  0  0  0  0  0
    2.0984    0.9975   -1.3433 H   0  0  0  0  0  0  0  0  0  0  0  0
    0.2918   -1.2188   -1.6177 H   0  0  0  0  0  0  0  0  0  0  0  0
   -0.0790    0.5313   -1.9440 H   0  0  0  0  0  0  0  0  0  0  0  0
  1  2  1  0
  2  3  1  0
  3  4  1  0
  4  5  1  0
  5  6  1  0
  6  7  1  0
  7  8  1  0
  4  2  1  0
  8  4  1  0
  1  9  1  0
  2 10  1  0
  3 11  1  0
  3 12  1  0
  5 13  1  0
  5 14  1  0
  6 15  1  0
  6 16  1  0
  7 17  1  0
  7 18  1  0
  8 19  1  0
  8 20  1  0
M  END
