
     RDKit          3D

 23 23  0  0  0  0  0  0  0  0999 V2000
    1.1182   -2.6471    0.4486 O   0  0  0  0  0  0  0  0  0  0  0  0
    0.6354   -1.4452   -0.0629 C   0  0  0  0  0  0  0  0  0  0  0  0
    1.6730   -0.3799    0.1537 C   0  0  0  0  0  0  0  0  0  0  0  0
    1.4980    0.7812   -0.8052 C   0  0  0  0  0  0  0  0  0  0  0  0
    0.5687    1.8054   -0.3131 C   0  0  0  0  0  0  0  0  0  0  0  0
   -0.7172    1.8643    0.0064 C   0  0  0  0  0  0  0  0  0  0  0  0
   -1.8861    0.9732    0.0454 C   0  0  0  0  0  0  0  0  0  0  0  0
   -1.5835   -0.4420   -0.3117 C   0  0  0  0  0  0  0  0  0  0  0  0
   -0.6296   -1.0815    0.6710 C   0  0  0  0  0  0  0  0  0  0  0  0
    1.0894   -2.5485    1.4425 H   0  0  0  0  0  0  0  0  0  0  0  0
    0.4010   -1.5602   -1.1454 H   0  0  0  0  0  0  0  0  0  0  0  0
    2.6704   -0.8703   -0.0298 H   0  0  0  0  0  0  0  0  0  0  0  0
    1.6744   -0.0616    1.2122 H   0  0  0  0  0  0  0  0  0  0  0  0
    1.2098    0.3458   -1.7895 H   0  0  0  0  0  0  0  0  0  0  0  0
    2.5257    1.2400   -0.9057 H   0  0  0  0  0  0  0  0  0  0  0  0
    1.0377    2.7912   -0.1615 H   0  0  0  0  0  0  0  0  0  0  0  0
   -0.9989    2.8659    0.3395 H   0  0  0  0  0  0  0  0  0  0  0  0
   -2.6572    1.3418   -0.6861 H   0  0  0  0  0  0  0  0  0  0  0  0
   -2.3713    0.9915    1.0344 H   0  0  0  0  0  0  0  0  0  0  0  0
   -2.5557   -0.9931   -0.3517 H   0  0  0  0  0  0  0  0  0  0  0  0
   -1.1817   -0.5182   -1.3646 H   0  0  0  0  0  0  0  0  0  0  0  0
   -1.0932   -2.0309    1.0222 H   0  0  0  0  0  0  0  0  0  0  0  0
   -0.4273   -0.4217    1.5509 H   0  0  0  0  0  0  0  0  0  0  0  0
  1  2  1  0
  2  3  1  0
  3  4  1  0
  4  5  1  0
  5  6  2  3
  6  7  1  0
  7  8  1  0
  8  9  1  0
  9  2  1  0
  1 10  1  0
  2 11  1  0
  3 12  1  0
  3 13  1  0
  4 14  1  0
  4 15  1  0
  5 16  1  0
  6 17  1  0
  7 18  1  0
  7 19  1  0
  8 20  1  0
  8 21  1  0
  9 22  1  0
  9 23  1  0
M  END
