
     RDKit          3D

 19 19  0  0  0  0  0  0  0  0999 V2000
   -1.0822    1.6988    0.7519 O   0  0  0  0  0  0  0  0  0  0  0  0
   -0.7504    0.9187   -0.3327 C   0  0  0  0  0  0  0  0  0  0  0  0
    0.6083    1.2656   -0.8370 C   0  0  0  0  0  0  0  0  0  0  0  0
    1.5968    1.2367    0.1229 O   0  0  0  0  0  0  0  0  0  0  0  0
    1.8415   -0.1110    0.4664 C   0  0  0  0  0  0  0  0  0  0  0  0
    0.8904   -0.4073    1.4597 O   0  0  0  0  0  0  0  0  0  0  0  0
   -0.1265   -1.1631    0.9550 C   0  0  0  0  0  0  0  0  0  0  0  0
   -0.9852   -0.5249   -0.0573 C   0  0  0  0  0  0  0  0  0  0  0  0
   -0.9386   -1.2006   -1.2988 O   0  0  0  0  0  0  0  0  0  0  0  0
   -2.0770    1.5812    0.8888 H   0  0  0  0  0  0  0  0  0  0  0  0
   -1.4810    1.2014   -1.1412 H   0  0  0  0  0  0  0  0  0  0  0  0
    0.8955    0.6618   -1.7189 H   0  0  0  0  0  0  0  0  0  0  0  0
    0.5561    2.3249   -1.2098 H   0  0  0  0  0  0  0  0  0  0  0  0
    2.8343   -0.2585    0.8964 H   0  0  0  0  0  0  0  0  0  0  0  0
    1.7259   -0.7740   -0.4125 H   0  0  0  0  0  0  0  0  0  0  0  0
   -0.7192   -1.5675    1.8238 H   0  0  0  0  0  0  0  0  0  0  0  0
    0.3365   -2.0847    0.4947 H   0  0  0  0  0  0  0  0  0  0  0  0
   -2.0509   -0.6142    0.2692 H   0  0  0  0  0  0  0  0  0  0  0  0
   -1.0741   -2.1833   -1.1205 H   0  0  0  0  0  0  0  0  0  0  0  0
  1  2  1  0
  2  3  1  0
  3  4  1  0
  4  5  1  0
  5  6  1  0
  6  7  1  0
  7  8  1  0
  8  9  1  0
  8  2  1  0
  1 10  1  0
  2 11  1  0
  3 12  1  0
  3 13  1  0
  5 14  1  0
  5 15  1  0
  7 16  1  0
  7 17  1  0
  8 18  1  0
  9 19  1  0
M  END
