
     RDKit          3D

 17 19  0  0  0  0  0  0  0  0999 V2000
    3.0514    0.6385   -0.0871 O   0  0  0  0  0  0  0  0  0  0  0  0
    1.7244    0.2625    0.2049 C   0  0  0  0  0  0  0  0  0  0  0  0
    0.9435   -0.1664   -0.8460 C   0  0  0  0  0  0  0  0  0  0  0  0
    0.0748   -1.2305   -0.6178 O   0  0  0  0  0  0  0  0  0  0  0  0
   -1.0041   -0.9588    0.1862 C   0  0  0  0  0  0  0  0  0  0  0  0
   -2.2757   -0.6479   -0.5450 C   0  0  0  0  0  0  0  0  0  0  0  0
   -1.4848    0.4380    0.1461 C   0  0  0  0  0  0  0  0  0  0  0  0
   -0.6219    1.1497   -0.6745 O   0  0  0  0  0  0  0  0  0  0  0  0
    0.6731    1.1063   -0.3301 C   0  0  0  0  0  0  0  0  0  0  0  0
    3.3977   -0.0653   -0.7085 H   0  0  0  0  0  0  0  0  0  0  0  0
    1.6645   -0.1949    1.2259 H   0  0  0  0  0  0  0  0  0  0  0  0
    1.3721   -0.2452   -1.8939 H   0  0  0  0  0  0  0  0  0  0  0  0
   -0.9961   -1.4484    1.1633 H   0  0  0  0  0  0  0  0  0  0  0  0
   -2.2967   -0.7052   -1.6386 H   0  0  0  0  0  0  0  0  0  0  0  0
   -3.2564   -0.8725   -0.0658 H   0  0  0  0  0  0  0  0  0  0  0  0
   -1.8771    0.9103    1.0616 H   0  0  0  0  0  0  0  0  0  0  0  0
    0.9112    2.0298    0.1298 H   0  0  0  0  0  0  0  0  0  0  0  0
  1  2  1  0
  2  3  1  0
  3  4  1  0
  4  5  1  0
  5  6  1  0
  6  7  1  0
  7  8  1  0
  8  9  1  0
  9  2  1  0
  9  3  1  0
  7  5  1  0
  1 10  1  0
  2 11  1  0
  3 12  1  0
  5 13  1  0
  6 14  1  0
  6 15  1  0
  7 16  1  0
  9 17  1  0
M  END
