
     RDKit          3D

 17 19  0  0  0  0  0  0  0  0999 V2000
    2.6301   -0.9022    0.0952 O   0  0  0  0  0  0  0  0  0  0  0  0
    1.3412   -0.4794    0.3251 C   0  0  0  0  0  0  0  0  0  0  0  0
    0.5541   -0.1105   -0.9449 C   0  0  0  0  0  0  0  0  0  0  0  0
   -0.1099    0.9926   -0.2052 C   0  0  0  0  0  0  0  0  0  0  0  0
   -1.5009    0.7381    0.0510 C   0  0  0  0  0  0  0  0  0  0  0  0
   -2.2029   -0.5475    0.0524 C   0  0  0  0  0  0  0  0  0  0  0  0
   -1.7626   -0.0240    1.2595 O   0  0  0  0  0  0  0  0  0  0  0  0
    0.2818    1.7154    0.9155 O   0  0  0  0  0  0  0  0  0  0  0  0
    1.1943    1.0230    0.4112 C   0  0  0  0  0  0  0  0  0  0  0  0
    2.8180   -1.7558    0.5506 H   0  0  0  0  0  0  0  0  0  0  0  0
    0.7768   -1.0661    1.0484 H   0  0  0  0  0  0  0  0  0  0  0  0
    1.2773    0.2913   -1.6904 H   0  0  0  0  0  0  0  0  0  0  0  0
   -0.0200   -0.9663   -1.2456 H   0  0  0  0  0  0  0  0  0  0  0  0
   -2.1930    1.6286   -0.0663 H   0  0  0  0  0  0  0  0  0  0  0  0
   -3.3114   -0.5766   -0.0068 H   0  0  0  0  0  0  0  0  0  0  0  0
   -1.7629   -1.4911   -0.3307 H   0  0  0  0  0  0  0  0  0  0  0  0
    1.9899    1.5304   -0.2188 H   0  0  0  0  0  0  0  0  0  0  0  0
  1  2  1  0
  2  3  1  0
  3  4  1  0
  4  5  1  0
  5  6  1  0
  6  7  1  0
  4  8  1  0
  8  9  1  0
  9  2  1  0
  9  4  1  0
  7  5  1  0
  1 10  1  0
  2 11  1  0
  3 12  1  0
  3 13  1  0
  5 14  1  0
  6 15  1  0
  6 16  1  0
  9 17  1  0
M  END
