
     RDKit          3D

 19 21  0  0  0  0  0  0  0  0999 V2000
   -0.2809    1.3179   -1.8212 O   0  0  0  0  0  0  0  0  0  0  0  0
   -0.5494    0.9164   -0.5503 C   0  0  0  0  0  0  0  0  0  0  0  0
    0.6633    0.6758    0.3078 C   0  0  0  0  0  0  0  0  0  0  0  0
   -0.0686    0.2308    1.5856 C   0  0  0  0  0  0  0  0  0  0  0  0
   -0.8985   -0.8759    0.9506 C   0  0  0  0  0  0  0  0  0  0  0  0
   -1.1995   -0.4516   -0.4568 C   0  0  0  0  0  0  0  0  0  0  0  0
   -0.1347   -1.4316   -0.1850 C   0  0  0  0  0  0  0  0  0  0  0  0
    1.1769   -0.6485   -0.1502 C   0  0  0  0  0  0  0  0  0  0  0  0
    1.8354   -0.6453   -1.3409 O   0  0  0  0  0  0  0  0  0  0  0  0
   -0.3786    2.3206   -1.8567 H   0  0  0  0  0  0  0  0  0  0  0  0
   -1.1828    1.6656   -0.0137 H   0  0  0  0  0  0  0  0  0  0  0  0
    1.3434    1.4714    0.4352 H   0  0  0  0  0  0  0  0  0  0  0  0
   -0.6760    1.0811    1.9053 H   0  0  0  0  0  0  0  0  0  0  0  0
    0.6633   -0.1349    2.3018 H   0  0  0  0  0  0  0  0  0  0  0  0
   -1.6064   -1.4425    1.5474 H   0  0  0  0  0  0  0  0  0  0  0  0
   -2.1388   -0.6654   -0.9463 H   0  0  0  0  0  0  0  0  0  0  0  0
   -0.1492   -2.4670   -0.4829 H   0  0  0  0  0  0  0  0  0  0  0  0
    1.8359   -1.0707    0.6515 H   0  0  0  0  0  0  0  0  0  0  0  0
    1.7452    0.1538   -1.8811 H   0  0  0  0  0  0  0  0  0  0  0  0
  1  2  1  0
  2  3  1  0
  3  4  1  0
  4  5  1  0
  5  6  1  0
  6  7  1  0
  7  8  1  0
  8  9  1  0
  6  2  1  0
  8  3  1  0
  7  5  1  0
  1 10  1  0
  2 11  1  0
  3 12  1  0
  4 13  1  0
  4 14  1  0
  5 15  1  0
  6 16  1  0
  7 17  1  0
  8 18  1  0
  9 19  1  0
M  END
