
     RDKit          3D

 19 21  0  0  0  0  0  0  0  0999 V2000
    1.9263   -1.6954   -0.3195 O   0  0  0  0  0  0  0  0  0  0  0  0
    1.2708   -0.8147    0.5168 C   0  0  0  0  0  0  0  0  0  0  0  0
    1.8737    0.5447    0.6624 C   0  0  0  0  0  0  0  0  0  0  0  0
    0.5012    1.0604    0.9642 C   0  0  0  0  0  0  0  0  0  0  0  0
    0.4031    0.1697   -0.2220 C   0  0  0  0  0  0  0  0  0  0  0  0
   -0.7315   -0.1234   -0.9566 C   0  0  0  0  0  0  0  0  0  0  0  0
   -1.9028   -0.7977   -0.2130 C   0  0  0  0  0  0  0  0  0  0  0  0
   -2.0323    0.5688   -0.7198 C   0  0  0  0  0  0  0  0  0  0  0  0
    1.5663    0.7399   -0.6805 O   0  0  0  0  0  0  0  0  0  0  0  0
    2.5568   -1.2004   -0.9054 H   0  0  0  0  0  0  0  0  0  0  0  0
    0.8644   -1.2159    1.4455 H   0  0  0  0  0  0  0  0  0  0  0  0
    2.7352    0.7908    1.1233 H   0  0  0  0  0  0  0  0  0  0  0  0
    0.1203    0.6899    1.9226 H   0  0  0  0  0  0  0  0  0  0  0  0
    0.3190    2.1225    0.7966 H   0  0  0  0  0  0  0  0  0  0  0  0
   -0.6041   -0.4502   -2.0316 H   0  0  0  0  0  0  0  0  0  0  0  0
   -2.3618   -1.6697   -0.7186 H   0  0  0  0  0  0  0  0  0  0  0  0
   -1.7927   -0.9212    0.8811 H   0  0  0  0  0  0  0  0  0  0  0  0
   -2.0110    1.4046    0.0256 H   0  0  0  0  0  0  0  0  0  0  0  0
   -2.7007    0.7975   -1.5711 H   0  0  0  0  0  0  0  0  0  0  0  0
  1  2  1  0
  2  3  1  0
  3  4  1  0
  4  5  1  0
  5  6  1  0
  6  7  1  0
  7  8  1  0
  5  9  1  0
  5  2  1  0
  8  6  1  0
  9  3  1  0
  1 10  1  0
  2 11  1  0
  3 12  1  0
  4 13  1  0
  4 14  1  0
  6 15  1  0
  7 16  1  0
  7 17  1  0
  8 18  1  0
  8 19  1  0
M  END
