
     RDKit          3D

 19 21  0  0  0  0  0  0  0  0999 V2000
   -2.4992    0.5192    0.3264 O   0  0  0  0  0  0  0  0  0  0  0  0
   -1.1953    0.7146   -0.0434 C   0  0  0  0  0  0  0  0  0  0  0  0
   -0.8117   -0.1358   -1.2686 C   0  0  0  0  0  0  0  0  0  0  0  0
    0.3733   -0.8810   -0.6777 C   0  0  0  0  0  0  0  0  0  0  0  0
   -0.2570   -1.3308    0.6559 C   0  0  0  0  0  0  0  0  0  0  0  0
   -0.1902    0.1827    0.9407 C   0  0  0  0  0  0  0  0  0  0  0  0
    1.0422    0.1449    0.1180 C   0  0  0  0  0  0  0  0  0  0  0  0
    2.2182    0.7765    0.1414 C   0  0  0  0  0  0  0  0  0  0  0  0
    2.1645   -0.3984    0.9020 O   0  0  0  0  0  0  0  0  0  0  0  0
   -2.9831    1.3864    0.1530 H   0  0  0  0  0  0  0  0  0  0  0  0
   -0.9418    1.7539   -0.3091 H   0  0  0  0  0  0  0  0  0  0  0  0
   -0.5538    0.4794   -2.1293 H   0  0  0  0  0  0  0  0  0  0  0  0
   -1.5937   -0.8967   -1.4549 H   0  0  0  0  0  0  0  0  0  0  0  0
    0.8676   -1.6137   -1.2535 H   0  0  0  0  0  0  0  0  0  0  0  0
    0.4583   -1.8959    1.2803 H   0  0  0  0  0  0  0  0  0  0  0  0
   -1.2709   -1.7143    0.5712 H   0  0  0  0  0  0  0  0  0  0  0  0
   -0.1968    0.4923    1.9486 H   0  0  0  0  0  0  0  0  0  0  0  0
    2.9649    0.7256   -0.6798 H   0  0  0  0  0  0  0  0  0  0  0  0
    2.4045    1.6911    0.7787 H   0  0  0  0  0  0  0  0  0  0  0  0
  1  2  1  0
  2  3  1  0
  3  4  1  0
  4  5  1  0
  5  6  1  0
  6  7  1  0
  7  8  1  0
  8  9  1  0
  6  2  1  0
  9  7  1  0
  7  4  1  0
  1 10  1  0
  2 11  1  0
  3 12  1  0
  3 13  1  0
  4 14  1  0
  5 15  1  0
  5 16  1  0
  6 17  1  0
  8 18  1  0
  8 19  1  0
M  END
