
     RDKit          3D

 18 19  0  0  0  0  0  0  0  0999 V2000
   -2.4817   -0.2206   -0.6303 O   0  0  0  0  0  0  0  0  0  0  0  0
   -1.5888   -0.3516    0.4178 C   0  0  0  0  0  0  0  0  0  0  0  0
   -1.0360    0.9876    0.8309 C   0  0  0  0  0  0  0  0  0  0  0  0
   -0.1466    1.2603   -0.2242 O   0  0  0  0  0  0  0  0  0  0  0  0
    0.6122    0.1112   -0.2528 C   0  0  0  0  0  0  0  0  0  0  0  0
    1.7297   -0.0856   -1.1857 C   0  0  0  0  0  0  0  0  0  0  0  0
    1.9658    0.1412    0.3079 C   0  0  0  0  0  0  0  0  0  0  0  0
   -0.3187   -1.0592   -0.0610 C   0  0  0  0  0  0  0  0  0  0  0  0
   -2.6104    0.7289   -0.9182 H   0  0  0  0  0  0  0  0  0  0  0  0
   -2.0367   -0.9220    1.2370 H   0  0  0  0  0  0  0  0  0  0  0  0
   -1.8060    1.7788    0.8903 H   0  0  0  0  0  0  0  0  0  0  0  0
   -0.4792    0.8805    1.7891 H   0  0  0  0  0  0  0  0  0  0  0  0
    1.9773   -1.1326   -1.5023 H   0  0  0  0  0  0  0  0  0  0  0  0
    2.0170    0.7496   -1.8759 H   0  0  0  0  0  0  0  0  0  0  0  0
    2.3629    1.1387    0.6026 H   0  0  0  0  0  0  0  0  0  0  0  0
    2.3212   -0.6931    0.9243 H   0  0  0  0  0  0  0  0  0  0  0  0
    0.0121   -1.7694    0.7036 H   0  0  0  0  0  0  0  0  0  0  0  0
   -0.4940   -1.5427   -1.0530 H   0  0  0  0  0  0  0  0  0  0  0  0
  1  2  1  0
  2  3  1  0
  3  4  1  0
  4  5  1  0
  5  6  1  0
  6  7  1  0
  5  8  1  0
  8  2  1  0
  7  5  1  0
  1  9  1  0
  2 10  1  0
  3 11  1  0
  3 12  1  0
  6 13  1  0
  6 14  1  0
  7 15  1  0
  7 16  1  0
  8 17  1  0
  8 18  1  0
M  END
