
     RDKit          3D

 19 20  0  0  0  0  0  0  0  0999 V2000
   -1.2551    0.5324    1.3140 O   0  0  0  0  0  0  0  0  0  0  0  0
   -1.2664    0.3026   -0.0632 C   0  0  0  0  0  0  0  0  0  0  0  0
   -0.2160    1.1933   -0.6855 C   0  0  0  0  0  0  0  0  0  0  0  0
    1.0790    0.4350   -0.5733 C   0  0  0  0  0  0  0  0  0  0  0  0
    1.5768    0.1469    0.7919 C   0  0  0  0  0  0  0  0  0  0  0  0
    1.2565   -1.2107    0.7148 O   0  0  0  0  0  0  0  0  0  0  0  0
    0.7149   -1.0095   -0.5444 C   0  0  0  0  0  0  0  0  0  0  0  0
   -0.8056   -1.0743   -0.4314 C   0  0  0  0  0  0  0  0  0  0  0  0
   -1.1533   -1.9318    0.6095 O   0  0  0  0  0  0  0  0  0  0  0  0
   -1.6539    1.4430    1.4346 H   0  0  0  0  0  0  0  0  0  0  0  0
   -2.2774    0.4765   -0.4520 H   0  0  0  0  0  0  0  0  0  0  0  0
   -0.1825    2.1943   -0.2146 H   0  0  0  0  0  0  0  0  0  0  0  0
   -0.4532    1.2774   -1.7756 H   0  0  0  0  0  0  0  0  0  0  0  0
    1.8470    0.7521   -1.2928 H   0  0  0  0  0  0  0  0  0  0  0  0
    1.0621    0.7095    1.5762 H   0  0  0  0  0  0  0  0  0  0  0  0
    2.7008    0.2286    0.8584 H   0  0  0  0  0  0  0  0  0  0  0  0
    1.1549   -1.6236   -1.3303 H   0  0  0  0  0  0  0  0  0  0  0  0
   -1.2352   -1.3804   -1.3873 H   0  0  0  0  0  0  0  0  0  0  0  0
   -0.8934   -1.4614    1.4510 H   0  0  0  0  0  0  0  0  0  0  0  0
  1  2  1  0
  2  3  1  0
  3  4  1  0
  4  5  1  0
  5  6  1  0
  6  7  1  0
  7  8  1  0
  8  9  1  0
  8  2  1  0
  7  4  1  0
  1 10  1  0
  2 11  1  0
  3 12  1  0
  3 13  1  0
  4 14  1  0
  5 15  1  0
  5 16  1  0
  7 17  1  0
  8 18  1  0
  9 19  1  0
M  END
