
     RDKit          3D

 21 22  0  0  0  0  0  0  0  0999 V2000
   -0.0451    1.5919    1.1106 O   0  0  0  0  0  0  0  0  0  0  0  0
   -0.3307    0.9053   -0.0388 C   0  0  0  0  0  0  0  0  0  0  0  0
    0.9201    0.9267   -0.9216 C   0  0  0  0  0  0  0  0  0  0  0  0
    2.0352    0.2180   -0.2141 C   0  0  0  0  0  0  0  0  0  0  0  0
    1.4383   -0.7820    0.7622 C   0  0  0  0  0  0  0  0  0  0  0  0
    0.2973   -1.3815    0.2880 O   0  0  0  0  0  0  0  0  0  0  0  0
   -0.7625   -0.5053    0.1499 C   0  0  0  0  0  0  0  0  0  0  0  0
   -1.8810   -0.9363   -0.8111 C   0  0  0  0  0  0  0  0  0  0  0  0
   -2.0530   -0.9108    0.6940 C   0  0  0  0  0  0  0  0  0  0  0  0
   -0.1075    2.5710    0.9071 H   0  0  0  0  0  0  0  0  0  0  0  0
   -1.0930    1.5007   -0.6116 H   0  0  0  0  0  0  0  0  0  0  0  0
    1.2397    1.9562   -1.1345 H   0  0  0  0  0  0  0  0  0  0  0  0
    0.6450    0.3875   -1.8585 H   0  0  0  0  0  0  0  0  0  0  0  0
    2.6021   -0.3722   -0.9719 H   0  0  0  0  0  0  0  0  0  0  0  0
    2.6983    0.9230    0.3416 H   0  0  0  0  0  0  0  0  0  0  0  0
    1.3174   -0.3211    1.7733 H   0  0  0  0  0  0  0  0  0  0  0  0
    2.2016   -1.5969    0.8967 H   0  0  0  0  0  0  0  0  0  0  0  0
   -2.4603   -0.1252   -1.3159 H   0  0  0  0  0  0  0  0  0  0  0  0
   -1.7597   -1.9071   -1.3299 H   0  0  0  0  0  0  0  0  0  0  0  0
   -2.7764   -0.2095    1.1500 H   0  0  0  0  0  0  0  0  0  0  0  0
   -2.1260   -1.9325    1.1344 H   0  0  0  0  0  0  0  0  0  0  0  0
  1  2  1  0
  2  3  1  0
  3  4  1  0
  4  5  1  0
  5  6  1  0
  6  7  1  0
  7  8  1  0
  8  9  1  0
  7  2  1  0
  9  7  1  0
  1 10  1  0
  2 11  1  0
  3 12  1  0
  3 13  1  0
  4 14  1  0
  4 15  1  0
  5 16  1  0
  5 17  1  0
  8 18  1  0
  8 19  1  0
  9 20  1  0
  9 21  1  0
M  END
