
     RDKit          3D

 19 21  0  0  0  0  0  0  0  0999 V2000
    2.5510   -0.8876    0.4914 O   0  0  0  0  0  0  0  0  0  0  0  0
    1.6395    0.1240    0.3200 C   0  0  0  0  0  0  0  0  0  0  0  0
    0.3340   -0.0030    1.0508 C   0  0  0  0  0  0  0  0  0  0  0  0
    0.0186   -1.1265    0.1189 C   0  0  0  0  0  0  0  0  0  0  0  0
   -1.4783   -1.0763   -0.1109 C   0  0  0  0  0  0  0  0  0  0  0  0
   -1.6353    0.4456   -0.2741 C   0  0  0  0  0  0  0  0  0  0  0  0
   -0.2271    0.8826   -0.0264 C   0  0  0  0  0  0  0  0  0  0  0  0
    0.0877    2.1856   -0.0392 O   0  0  0  0  0  0  0  0  0  0  0  0
    0.6312   -0.0955   -0.7744 C   0  0  0  0  0  0  0  0  0  0  0  0
    3.2500   -0.8034   -0.2045 H   0  0  0  0  0  0  0  0  0  0  0  0
    2.0338    1.1631    0.3660 H   0  0  0  0  0  0  0  0  0  0  0  0
    0.1727    0.0583    2.0351 H   0  0  0  0  0  0  0  0  0  0  0  0
    0.4878   -2.0783    0.2421 H   0  0  0  0  0  0  0  0  0  0  0  0
   -1.7077   -1.5633   -1.0780 H   0  0  0  0  0  0  0  0  0  0  0  0
   -2.0371   -1.4612    0.7369 H   0  0  0  0  0  0  0  0  0  0  0  0
   -2.3772    0.8602    0.4005 H   0  0  0  0  0  0  0  0  0  0  0  0
   -1.9061    0.6820   -1.3170 H   0  0  0  0  0  0  0  0  0  0  0  0
   -0.6349    2.8349   -0.1791 H   0  0  0  0  0  0  0  0  0  0  0  0
    0.7973   -0.1411   -1.7580 H   0  0  0  0  0  0  0  0  0  0  0  0
  1  2  1  0
  2  3  1  0
  3  4  1  0
  4  5  1  0
  5  6  1  0
  6  7  1  0
  7  8  1  0
  7  9  1  0
  9  2  1  0
  7  3  1  0
  9  4  1  0
  1 10  1  0
  2 11  1  0
  3 12  1  0
  4 13  1  0
  5 14  1  0
  5 15  1  0
  6 16  1  0
  6 17  1  0
  8 18  1  0
  9 19  1  0
M  END
