
     RDKit          3D

 17 19  0  0  0  0  0  0  0  0999 V2000
   -2.0154   -1.1219   -0.9538 O   0  0  0  0  0  0  0  0  0  0  0  0
   -1.2680   -0.6833    0.1318 C   0  0  0  0  0  0  0  0  0  0  0  0
   -1.4130    0.8061    0.2704 C   0  0  0  0  0  0  0  0  0  0  0  0
   -0.2233    1.3852    0.3547 C   0  0  0  0  0  0  0  0  0  0  0  0
    0.8828    0.4210    0.2897 C   0  0  0  0  0  0  0  0  0  0  0  0
    1.5941    0.2723   -1.0357 C   0  0  0  0  0  0  0  0  0  0  0  0
    0.8091   -0.8813   -1.2493 O   0  0  0  0  0  0  0  0  0  0  0  0
    0.1909   -0.9249   -0.0051 C   0  0  0  0  0  0  0  0  0  0  0  0
    1.0134   -0.7072    1.2292 C   0  0  0  0  0  0  0  0  0  0  0  0
   -2.0122   -0.4461   -1.7022 H   0  0  0  0  0  0  0  0  0  0  0  0
   -1.6461   -1.1108    1.0781 H   0  0  0  0  0  0  0  0  0  0  0  0
   -2.3515    1.3490    0.2994 H   0  0  0  0  0  0  0  0  0  0  0  0
   -0.0787    2.4552    0.4604 H   0  0  0  0  0  0  0  0  0  0  0  0
    2.6692    0.0560   -0.8650 H   0  0  0  0  0  0  0  0  0  0  0  0
    1.3464    1.0587   -1.7420 H   0  0  0  0  0  0  0  0  0  0  0  0
    2.0243   -1.1819    1.2602 H   0  0  0  0  0  0  0  0  0  0  0  0
    0.4779   -0.7460    2.1790 H   0  0  0  0  0  0  0  0  0  0  0  0
  1  2  1  0
  2  3  1  0
  3  4  2  0
  4  5  1  0
  5  6  1  0
  6  7  1  0
  7  8  1  0
  8  9  1  0
  8  2  1  0
  8  5  1  0
  9  5  1  0
  1 10  1  0
  2 11  1  0
  3 12  1  0
  4 13  1  0
  6 14  1  0
  6 15  1  0
  9 16  1  0
  9 17  1  0
M  END
