
     RDKit          3D

 19 20  0  0  0  0  0  0  0  0999 V2000
   -2.2252    1.2159    0.4653 O   0  0  0  0  0  0  0  0  0  0  0  0
   -1.4253    0.0632    0.6506 C   0  0  0  0  0  0  0  0  0  0  0  0
   -1.6110   -0.8843   -0.4723 C   0  0  0  0  0  0  0  0  0  0  0  0
   -0.6202   -0.9546   -1.3926 O   0  0  0  0  0  0  0  0  0  0  0  0
    0.6561   -1.0160   -0.9078 C   0  0  0  0  0  0  0  0  0  0  0  0
    0.9346    0.2846   -0.1825 C   0  0  0  0  0  0  0  0  0  0  0  0
    2.3605    0.5862    0.0507 C   0  0  0  0  0  0  0  0  0  0  0  0
    1.4799    1.3509   -0.8695 O   0  0  0  0  0  0  0  0  0  0  0  0
   -0.0458    0.5111    0.9235 C   0  0  0  0  0  0  0  0  0  0  0  0
   -1.6357    1.8502   -0.0243 H   0  0  0  0  0  0  0  0  0  0  0  0
   -1.8582   -0.4197    1.5763 H   0  0  0  0  0  0  0  0  0  0  0  0
   -2.5623   -0.6041   -1.0067 H   0  0  0  0  0  0  0  0  0  0  0  0
   -1.8129   -1.9295   -0.0999 H   0  0  0  0  0  0  0  0  0  0  0  0
    1.3509   -1.0247   -1.7913 H   0  0  0  0  0  0  0  0  0  0  0  0
    0.9006   -1.9043   -0.3179 H   0  0  0  0  0  0  0  0  0  0  0  0
    3.1497    0.1304   -0.5824 H   0  0  0  0  0  0  0  0  0  0  0  0
    2.6143    1.1352    0.9655 H   0  0  0  0  0  0  0  0  0  0  0  0
    0.0045    1.6114    1.1763 H   0  0  0  0  0  0  0  0  0  0  0  0
    0.3455   -0.0019    1.8389 H   0  0  0  0  0  0  0  0  0  0  0  0
  1  2  1  0
  2  3  1  0
  3  4  1  0
  4  5  1  0
  5  6  1  0
  6  7  1  0
  7  8  1  0
  6  9  1  0
  9  2  1  0
  8  6  1  0
  1 10  1  0
  2 11  1  0
  3 12  1  0
  3 13  1  0
  5 14  1  0
  5 15  1  0
  7 16  1  0
  7 17  1  0
  9 18  1  0
  9 19  1  0
M  END
