
     RDKit          3D

 21 23  0  0  0  0  0  0  0  0999 V2000
    1.6872    1.6754    0.3598 O   0  0  0  0  0  0  0  0  0  0  0  0
    1.3289    0.6148   -0.4981 C   0  0  0  0  0  0  0  0  0  0  0  0
    1.3452   -0.6876    0.2445 C   0  0  0  0  0  0  0  0  0  0  0  0
    0.0319   -1.3537    0.0749 C   0  0  0  0  0  0  0  0  0  0  0  0
   -1.0381   -1.0655    1.0739 C   0  0  0  0  0  0  0  0  0  0  0  0
   -1.6462   -0.0897    0.1044 C   0  0  0  0  0  0  0  0  0  0  0  0
   -0.9578    1.2546    0.1889 C   0  0  0  0  0  0  0  0  0  0  0  0
   -0.0720    0.7922   -0.9623 C   0  0  0  0  0  0  0  0  0  0  0  0
   -0.7193   -0.5462   -0.9348 C   0  0  0  0  0  0  0  0  0  0  0  0
    2.6442    1.8767    0.3272 H   0  0  0  0  0  0  0  0  0  0  0  0
    2.0278    0.6612   -1.3471 H   0  0  0  0  0  0  0  0  0  0  0  0
    2.1190   -1.3335   -0.2659 H   0  0  0  0  0  0  0  0  0  0  0  0
    1.6556   -0.5915    1.3048 H   0  0  0  0  0  0  0  0  0  0  0  0
    0.0635   -2.4418   -0.1965 H   0  0  0  0  0  0  0  0  0  0  0  0
   -1.7368   -1.9046    1.2526 H   0  0  0  0  0  0  0  0  0  0  0  0
   -0.7542   -0.5574    2.0000 H   0  0  0  0  0  0  0  0  0  0  0  0
   -2.7089   -0.1018   -0.0387 H   0  0  0  0  0  0  0  0  0  0  0  0
   -1.5624    2.1244   -0.0873 H   0  0  0  0  0  0  0  0  0  0  0  0
   -0.4167    1.3802    1.1575 H   0  0  0  0  0  0  0  0  0  0  0  0
   -0.2400    1.3011   -1.9183 H   0  0  0  0  0  0  0  0  0  0  0  0
   -1.0511   -1.0071   -1.8396 H   0  0  0  0  0  0  0  0  0  0  0  0
  1  2  1  0
  2  3  1  0
  3  4  1  0
  4  5  1  0
  5  6  1  0
  6  7  1  0
  7  8  1  0
  8  9  1  0
  8  2  1  0
  9  4  1  0
  9  6  1  0
  1 10  1  0
  2 11  1  0
  3 12  1  0
  3 13  1  0
  4 14  1  0
  5 15  1  0
  5 16  1  0
  6 17  1  0
  7 18  1  0
  7 19  1  0
  8 20  1  0
  9 21  1  0
M  END
