
     RDKit          3D

 21 22  0  0  0  0  0  0  0  0999 V2000
    1.6412    1.4000   -0.8060 O   0  0  0  0  0  0  0  0  0  0  0  0
    1.6326    0.0094   -0.8255 C   0  0  0  0  0  0  0  0  0  0  0  0
    2.6166   -0.6777    0.0814 C   0  0  0  0  0  0  0  0  0  0  0  0
    1.1910   -0.7347    0.4287 C   0  0  0  0  0  0  0  0  0  0  0  0
    0.5850    0.1805    1.4711 C   0  0  0  0  0  0  0  0  0  0  0  0
   -0.5252    0.7816    0.8733 O   0  0  0  0  0  0  0  0  0  0  0  0
   -1.4737   -0.1377    0.4605 C   0  0  0  0  0  0  0  0  0  0  0  0
   -2.2612    0.1350   -0.7942 C   0  0  0  0  0  0  0  0  0  0  0  0
   -2.9050    0.3700    0.5456 C   0  0  0  0  0  0  0  0  0  0  0  0
    2.1351    1.7305   -0.0155 H   0  0  0  0  0  0  0  0  0  0  0  0
    1.3091   -0.4688   -1.7684 H   0  0  0  0  0  0  0  0  0  0  0  0
    3.3549   -0.0583    0.6198 H   0  0  0  0  0  0  0  0  0  0  0  0
    3.0613   -1.5926   -0.3674 H   0  0  0  0  0  0  0  0  0  0  0  0
    0.6792   -1.6971    0.3384 H   0  0  0  0  0  0  0  0  0  0  0  0
    1.2834    1.0151    1.7270 H   0  0  0  0  0  0  0  0  0  0  0  0
    0.2929   -0.3761    2.3830 H   0  0  0  0  0  0  0  0  0  0  0  0
   -1.2823   -1.2190    0.6304 H   0  0  0  0  0  0  0  0  0  0  0  0
   -2.6625   -0.7134   -1.3754 H   0  0  0  0  0  0  0  0  0  0  0  0
   -1.9751    1.0136   -1.4034 H   0  0  0  0  0  0  0  0  0  0  0  0
   -3.0776    1.4024    0.8601 H   0  0  0  0  0  0  0  0  0  0  0  0
   -3.6198   -0.3626    0.9544 H   0  0  0  0  0  0  0  0  0  0  0  0
  1  2  1  0
  2  3  1  0
  3  4  1  0
  4  5  1  0
  5  6  1  0
  6  7  1  0
  7  8  1  0
  8  9  1  0
  4  2  1  0
  9  7  1  0
  1 10  1  0
  2 11  1  0
  3 12  1  0
  3 13  1  0
  4 14  1  0
  5 15  1  0
  5 16  1  0
  7 17  1  0
  8 18  1  0
  8 19  1  0
  9 20  1  0
  9 21  1  0
M  END
