
     RDKit          3D

 21 22  0  0  0  0  0  0  0  0999 V2000
   -1.9924    1.7088   -0.3420 O   0  0  0  0  0  0  0  0  0  0  0  0
   -0.9777    0.9569    0.1453 C   0  0  0  0  0  0  0  0  0  0  0  0
    0.3922    1.3799   -0.4089 C   0  0  0  0  0  0  0  0  0  0  0  0
    1.3608    0.5754    0.3352 C   0  0  0  0  0  0  0  0  0  0  0  0
    2.4006   -0.3114   -0.0147 C   0  0  0  0  0  0  0  0  0  0  0  0
    1.1271   -0.8452   -0.2974 C   0  0  0  0  0  0  0  0  0  0  0  0
    0.0015   -1.3253    0.5036 C   0  0  0  0  0  0  0  0  0  0  0  0
   -1.2111   -0.5145    0.0281 C   0  0  0  0  0  0  0  0  0  0  0  0
   -2.3679   -0.9072    0.6208 O   0  0  0  0  0  0  0  0  0  0  0  0
   -2.5523    1.3026   -1.0397 H   0  0  0  0  0  0  0  0  0  0  0  0
   -0.8955    1.1767    1.2525 H   0  0  0  0  0  0  0  0  0  0  0  0
    0.5196    2.4440   -0.2315 H   0  0  0  0  0  0  0  0  0  0  0  0
    0.3768    1.1138   -1.5063 H   0  0  0  0  0  0  0  0  0  0  0  0
    1.1683    0.6611    1.4490 H   0  0  0  0  0  0  0  0  0  0  0  0
    3.0198   -0.7916    0.7785 H   0  0  0  0  0  0  0  0  0  0  0  0
    3.0819   -0.0191   -0.8587 H   0  0  0  0  0  0  0  0  0  0  0  0
    0.8496   -0.8599   -1.3967 H   0  0  0  0  0  0  0  0  0  0  0  0
    0.0778   -1.0892    1.6036 H   0  0  0  0  0  0  0  0  0  0  0  0
   -0.2309   -2.3880    0.4385 H   0  0  0  0  0  0  0  0  0  0  0  0
   -1.2714   -0.7401   -1.0779 H   0  0  0  0  0  0  0  0  0  0  0  0
   -2.8768   -1.5276    0.0189 H   0  0  0  0  0  0  0  0  0  0  0  0
  1  2  1  0
  2  3  1  0
  3  4  1  0
  4  5  1  0
  5  6  1  0
  6  7  1  0
  7  8  1  0
  8  9  1  0
  8  2  1  0
  6  4  1  0
  1 10  1  0
  2 11  1  0
  3 12  1  0
  3 13  1  0
  4 14  1  0
  5 15  1  0
  5 16  1  0
  6 17  1  0
  7 18  1  0
  7 19  1  0
  8 20  1  0
  9 21  1  0
M  END
