
     RDKit          3D

 17 19  0  0  0  0  0  0  0  0999 V2000
    2.8464    0.1600   -0.3262 O   0  0  0  0  0  0  0  0  0  0  0  0
    1.5559    0.5391   -0.0250 C   0  0  0  0  0  0  0  0  0  0  0  0
    0.9668   -0.0513    1.1942 C   0  0  0  0  0  0  0  0  0  0  0  0
   -0.2739    0.2743    1.6680 O   0  0  0  0  0  0  0  0  0  0  0  0
   -0.8263   -0.0601    0.4755 C   0  0  0  0  0  0  0  0  0  0  0  0
   -2.1622   -0.5036    0.2157 C   0  0  0  0  0  0  0  0  0  0  0  0
   -1.7220    0.8380   -0.2832 C   0  0  0  0  0  0  0  0  0  0  0  0
    0.4311   -0.4859   -0.1428 C   0  0  0  0  0  0  0  0  0  0  0  0
    0.6784   -1.7272   -0.6401 O   0  0  0  0  0  0  0  0  0  0  0  0
    3.4467    0.8538    0.0975 H   0  0  0  0  0  0  0  0  0  0  0  0
    1.3016    1.6066   -0.2541 H   0  0  0  0  0  0  0  0  0  0  0  0
    1.5839   -0.7069    1.8052 H   0  0  0  0  0  0  0  0  0  0  0  0
   -2.8931   -0.4912    1.0763 H   0  0  0  0  0  0  0  0  0  0  0  0
   -2.4427   -1.2295   -0.5496 H   0  0  0  0  0  0  0  0  0  0  0  0
   -1.4811    0.9520   -1.3701 H   0  0  0  0  0  0  0  0  0  0  0  0
   -2.0232    1.7666    0.2686 H   0  0  0  0  0  0  0  0  0  0  0  0
    1.0136   -1.7349   -1.5869 H   0  0  0  0  0  0  0  0  0  0  0  0
  1  2  1  0
  2  3  1  0
  3  4  1  0
  4  5  1  0
  5  6  1  0
  6  7  1  0
  5  8  1  0
  8  9  1  0
  8  2  1  0
  8  3  1  0
  7  5  1  0
  1 10  1  0
  2 11  1  0
  3 12  1  0
  6 13  1  0
  6 14  1  0
  7 15  1  0
  7 16  1  0
  9 17  1  0
M  END
