
     RDKit          3D

 19 21  0  0  0  0  0  0  0  0999 V2000
   -0.0069   -0.5626    2.0554 O   0  0  0  0  0  0  0  0  0  0  0  0
   -0.0285    0.2614    0.9148 C   0  0  0  0  0  0  0  0  0  0  0  0
    0.9204   -0.1998   -0.1136 C   0  0  0  0  0  0  0  0  0  0  0  0
    2.2932   -0.5700    0.0664 C   0  0  0  0  0  0  0  0  0  0  0  0
    1.8526    0.6137   -0.8601 C   0  0  0  0  0  0  0  0  0  0  0  0
   -0.0345   -0.9284   -0.8017 O   0  0  0  0  0  0  0  0  0  0  0  0
   -0.9737   -0.1652   -0.1322 C   0  0  0  0  0  0  0  0  0  0  0  0
   -2.3685   -0.4506   -0.0170 C   0  0  0  0  0  0  0  0  0  0  0  0
   -1.8683    0.7803   -0.7742 C   0  0  0  0  0  0  0  0  0  0  0  0
    0.2444   -1.4689    1.7644 H   0  0  0  0  0  0  0  0  0  0  0  0
   -0.0179    1.3581    1.1615 H   0  0  0  0  0  0  0  0  0  0  0  0
    2.7898   -1.4160   -0.4521 H   0  0  0  0  0  0  0  0  0  0  0  0
    2.8185   -0.2714    0.9920 H   0  0  0  0  0  0  0  0  0  0  0  0
    2.2077    1.6061   -0.5527 H   0  0  0  0  0  0  0  0  0  0  0  0
    1.9570    0.3771   -1.9605 H   0  0  0  0  0  0  0  0  0  0  0  0
   -2.8793   -0.3050    0.9494 H   0  0  0  0  0  0  0  0  0  0  0  0
   -2.8430   -1.1981   -0.6994 H   0  0  0  0  0  0  0  0  0  0  0  0
   -2.1457    1.7461   -0.3022 H   0  0  0  0  0  0  0  0  0  0  0  0
   -1.9171    0.7933   -1.8676 H   0  0  0  0  0  0  0  0  0  0  0  0
  1  2  1  0
  2  3  1  0
  3  4  1  0
  4  5  1  0
  3  6  1  0
  6  7  1  0
  7  8  1  0
  8  9  1  0
  7  2  1  0
  5  3  1  0
  9  7  1  0
  1 10  1  0
  2 11  1  0
  4 12  1  0
  4 13  1  0
  5 14  1  0
  5 15  1  0
  8 16  1  0
  8 17  1  0
  9 18  1  0
  9 19  1  0
M  END
