
     RDKit          3D

 21 22  0  0  0  0  0  0  0  0999 V2000
    0.6527   -2.0952    0.5191 O   0  0  0  0  0  0  0  0  0  0  0  0
    0.2751   -1.4034   -0.6547 C   0  0  0  0  0  0  0  0  0  0  0  0
   -1.1782   -1.0950   -0.5308 C   0  0  0  0  0  0  0  0  0  0  0  0
   -1.3863    0.0433    0.4442 C   0  0  0  0  0  0  0  0  0  0  0  0
   -0.6048    1.2587    0.1258 C   0  0  0  0  0  0  0  0  0  0  0  0
   -0.5928    2.0745    1.2808 O   0  0  0  0  0  0  0  0  0  0  0  0
    0.7771    1.0470   -0.3590 C   0  0  0  0  0  0  0  0  0  0  0  0
    1.7961    0.2991    0.4304 C   0  0  0  0  0  0  0  0  0  0  0  0
    1.1607   -0.2449   -0.8619 C   0  0  0  0  0  0  0  0  0  0  0  0
    0.1681   -1.7136    1.2758 H   0  0  0  0  0  0  0  0  0  0  0  0
    0.3968   -2.1673   -1.4741 H   0  0  0  0  0  0  0  0  0  0  0  0
   -1.6685   -2.0015   -0.0731 H   0  0  0  0  0  0  0  0  0  0  0  0
   -1.7015   -0.9127   -1.4707 H   0  0  0  0  0  0  0  0  0  0  0  0
   -2.4816    0.3124    0.3602 H   0  0  0  0  0  0  0  0  0  0  0  0
   -1.2677   -0.2825    1.5061 H   0  0  0  0  0  0  0  0  0  0  0  0
   -1.1620    1.8345   -0.6578 H   0  0  0  0  0  0  0  0  0  0  0  0
   -0.7136    3.0210    1.0128 H   0  0  0  0  0  0  0  0  0  0  0  0
    1.2070    1.9485   -0.8906 H   0  0  0  0  0  0  0  0  0  0  0  0
    1.5619   -0.1923    1.3767 H   0  0  0  0  0  0  0  0  0  0  0  0
    2.8827    0.5972    0.3595 H   0  0  0  0  0  0  0  0  0  0  0  0
    1.8785   -0.3278   -1.7188 H   0  0  0  0  0  0  0  0  0  0  0  0
  1  2  1  0
  2  3  1  0
  3  4  1  0
  4  5  1  0
  5  6  1  0
  5  7  1  0
  7  8  1  0
  8  9  1  0
  9  2  1  0
  9  7  1  0
  1 10  1  0
  2 11  1  0
  3 12  1  0
  3 13  1  0
  4 14  1  0
  4 15  1  0
  5 16  1  0
  6 17  1  0
  7 18  1  0
  8 19  1  0
  8 20  1  0
  9 21  1  0
M  END
