
     RDKit          3D

 12 13  0  0  0  0  0  0  0  0999 V2000
   -0.7965    1.7374   -0.0562 O   0  0  0  0  0  0  0  0  0  0  0  0
   -0.2266    0.6229   -0.6918 C   0  0  0  0  0  0  0  0  0  0  0  0
   -0.7885   -0.6780   -0.1113 C   0  0  0  0  0  0  0  0  0  0  0  0
    0.5584   -0.8611    0.5647 C   0  0  0  0  0  0  0  0  0  0  0  0
    1.0718    0.1850    1.2936 O   0  0  0  0  0  0  0  0  0  0  0  0
    1.0921    0.2164   -0.0896 C   0  0  0  0  0  0  0  0  0  0  0  0
   -1.1066    1.4950    0.8522 H   0  0  0  0  0  0  0  0  0  0  0  0
   -0.1899    0.6728   -1.7769 H   0  0  0  0  0  0  0  0  0  0  0  0
   -1.5742   -0.5502    0.6361 H   0  0  0  0  0  0  0  0  0  0  0  0
   -0.9994   -1.4380   -0.8820 H   0  0  0  0  0  0  0  0  0  0  0  0
    0.9213   -1.8639    0.8086 H   0  0  0  0  0  0  0  0  0  0  0  0
    2.0380    0.4618   -0.5473 H   0  0  0  0  0  0  0  0  0  0  0  0
  1  2  1  0
  2  3  1  0
  3  4  1  0
  4  5  1  0
  5  6  1  0
  6  2  1  0
  6  4  1  0
  1  7  1  0
  2  8  1  0
  3  9  1  0
  3 10  1  0
  4 11  1  0
  6 12  1  0
M  END
