
     RDKit          3D

 18 20  0  0  0  0  0  0  0  0999 V2000
    3.0317   -0.5945    0.5127 O   0  0  0  0  0  0  0  0  0  0  0  0
    1.8151    0.0989    0.7478 C   0  0  0  0  0  0  0  0  0  0  0  0
    1.1059    0.5231   -0.3948 C   0  0  0  0  0  0  0  0  0  0  0  0
    0.1311   -0.2756   -1.2624 C   0  0  0  0  0  0  0  0  0  0  0  0
   -0.7157   -0.0385   -0.0354 C   0  0  0  0  0  0  0  0  0  0  0  0
   -2.0565   -0.3823    0.1851 C   0  0  0  0  0  0  0  0  0  0  0  0
   -1.5238    1.0902    0.2483 C   0  0  0  0  0  0  0  0  0  0  0  0
    0.5171   -0.5060    0.6658 C   0  0  0  0  0  0  0  0  0  0  0  0
    2.9418   -1.5274    0.7966 H   0  0  0  0  0  0  0  0  0  0  0  0
    1.9720    0.7918    1.6286 H   0  0  0  0  0  0  0  0  0  0  0  0
    0.6412    1.5595   -0.3000 H   0  0  0  0  0  0  0  0  0  0  0  0
   -0.2356    0.2604   -2.1300 H   0  0  0  0  0  0  0  0  0  0  0  0
    0.4040   -1.3312   -1.4025 H   0  0  0  0  0  0  0  0  0  0  0  0
   -2.7367   -0.5861   -0.6933 H   0  0  0  0  0  0  0  0  0  0  0  0
   -2.4659   -0.7904    1.1166 H   0  0  0  0  0  0  0  0  0  0  0  0
   -1.5851    1.5545    1.2600 H   0  0  0  0  0  0  0  0  0  0  0  0
   -1.8713    1.7515   -0.5735 H   0  0  0  0  0  0  0  0  0  0  0  0
    0.6304   -1.5980    0.3599 H   0  0  0  0  0  0  0  0  0  0  0  0
  1  2  1  0
  2  3  1  0
  3  4  1  0
  4  5  1  0
  5  6  1  0
  6  7  1  0
  5  8  1  0
  8  2  1  0
  8  3  1  0
  7  5  1  0
  1  9  1  0
  2 10  1  0
  3 11  1  0
  4 12  1  0
  4 13  1  0
  6 14  1  0
  6 15  1  0
  7 16  1  0
  7 17  1  0
  8 18  1  0
M  END
