
     RDKit          3D

 21 23  0  0  0  0  0  0  0  0999 V2000
    0.9438    1.3861    1.5343 O   0  0  0  0  0  0  0  0  0  0  0  0
    1.1419    0.1054    1.0445 C   0  0  0  0  0  0  0  0  0  0  0  0
    2.0892    0.1212   -0.1207 C   0  0  0  0  0  0  0  0  0  0  0  0
    2.1617   -1.1000   -0.9315 C   0  0  0  0  0  0  0  0  0  0  0  0
    0.8912   -0.3226   -1.0061 C   0  0  0  0  0  0  0  0  0  0  0  0
    0.0030   -0.4256    0.1968 C   0  0  0  0  0  0  0  0  0  0  0  0
   -1.1692    0.5180    0.2337 C   0  0  0  0  0  0  0  0  0  0  0  0
   -2.4129    0.1741   -0.5479 C   0  0  0  0  0  0  0  0  0  0  0  0
   -2.3961   -0.0761    0.9297 C   0  0  0  0  0  0  0  0  0  0  0  0
    1.0487    2.0670    0.8165 H   0  0  0  0  0  0  0  0  0  0  0  0
    1.3957   -0.6152    1.8548 H   0  0  0  0  0  0  0  0  0  0  0  0
    2.5977    1.0579   -0.4207 H   0  0  0  0  0  0  0  0  0  0  0  0
    2.8817   -1.0881   -1.7745 H   0  0  0  0  0  0  0  0  0  0  0  0
    2.1292   -2.0736   -0.4107 H   0  0  0  0  0  0  0  0  0  0  0  0
    0.6568    0.3419   -1.8417 H   0  0  0  0  0  0  0  0  0  0  0  0
   -0.2459   -1.4709    0.4150 H   0  0  0  0  0  0  0  0  0  0  0  0
   -0.9626    1.5540    0.5054 H   0  0  0  0  0  0  0  0  0  0  0  0
   -2.4021   -0.6575   -1.2692 H   0  0  0  0  0  0  0  0  0  0  0  0
   -2.9969    1.0566   -0.8681 H   0  0  0  0  0  0  0  0  0  0  0  0
   -2.3819   -1.1336    1.2197 H   0  0  0  0  0  0  0  0  0  0  0  0
   -2.9731    0.5810    1.6092 H   0  0  0  0  0  0  0  0  0  0  0  0
  1  2  1  0
  2  3  1  0
  3  4  1  0
  4  5  1  0
  5  6  1  0
  6  7  1  0
  7  8  1  0
  8  9  1  0
  6  2  1  0
  9  7  1  0
  5  3  1  0
  1 10  1  0
  2 11  1  0
  3 12  1  0
  4 13  1  0
  4 14  1  0
  5 15  1  0
  6 16  1  0
  7 17  1  0
  8 18  1  0
  8 19  1  0
  9 20  1  0
  9 21  1  0
M  END
