
     RDKit          3D

 19 21  0  0  0  0  0  0  0  0999 V2000
   -2.3861    0.0187    0.0858 O   0  0  0  0  0  0  0  0  0  0  0  0
   -1.2293   -0.6679   -0.1743 C   0  0  0  0  0  0  0  0  0  0  0  0
   -0.1332   -0.5150    0.8927 C   0  0  0  0  0  0  0  0  0  0  0  0
   -0.1652    0.9681    1.1112 C   0  0  0  0  0  0  0  0  0  0  0  0
   -0.2286    1.4379   -0.3568 C   0  0  0  0  0  0  0  0  0  0  0  0
   -0.2058    0.0939   -1.0330 C   0  0  0  0  0  0  0  0  0  0  0  0
    0.8167   -0.6510   -0.2557 C   0  0  0  0  0  0  0  0  0  0  0  0
    2.1737   -0.6582   -0.2995 C   0  0  0  0  0  0  0  0  0  0  0  0
    1.3457   -1.8463   -0.6446 O   0  0  0  0  0  0  0  0  0  0  0  0
   -3.1482   -0.6375    0.0730 H   0  0  0  0  0  0  0  0  0  0  0  0
   -1.3009   -1.6958   -0.5336 H   0  0  0  0  0  0  0  0  0  0  0  0
   -0.1275   -1.1928    1.6993 H   0  0  0  0  0  0  0  0  0  0  0  0
   -1.0167    1.3315    1.6844 H   0  0  0  0  0  0  0  0  0  0  0  0
    0.7722    1.3319    1.5796 H   0  0  0  0  0  0  0  0  0  0  0  0
    0.6965    1.9843   -0.5925 H   0  0  0  0  0  0  0  0  0  0  0  0
   -1.1540    2.0053   -0.5353 H   0  0  0  0  0  0  0  0  0  0  0  0
   -0.2884    0.0145   -2.0823 H   0  0  0  0  0  0  0  0  0  0  0  0
    2.8093   -0.9657    0.5583 H   0  0  0  0  0  0  0  0  0  0  0  0
    2.7699   -0.3557   -1.1767 H   0  0  0  0  0  0  0  0  0  0  0  0
  1  2  1  0
  2  3  1  0
  3  4  1  0
  4  5  1  0
  5  6  1  0
  6  7  1  0
  7  8  1  0
  8  9  1  0
  6  2  1  0
  9  7  1  0
  7  3  1  0
  1 10  1  0
  2 11  1  0
  3 12  1  0
  4 13  1  0
  4 14  1  0
  5 15  1  0
  5 16  1  0
  6 17  1  0
  8 18  1  0
  8 19  1  0
M  END
