
     RDKit          3D

 21 23  0  0  0  0  0  0  0  0999 V2000
    0.6255    2.2405   -0.0961 O   0  0  0  0  0  0  0  0  0  0  0  0
   -0.3354    1.3356    0.2509 C   0  0  0  0  0  0  0  0  0  0  0  0
    0.3214    0.3010    1.1828 C   0  0  0  0  0  0  0  0  0  0  0  0
   -0.8122   -0.7069    1.2671 C   0  0  0  0  0  0  0  0  0  0  0  0
   -1.4945   -0.6417   -0.0971 C   0  0  0  0  0  0  0  0  0  0  0  0
   -0.6319    0.3316   -0.8771 C   0  0  0  0  0  0  0  0  0  0  0  0
    0.7498   -0.2030   -1.1236 C   0  0  0  0  0  0  0  0  0  0  0  0
    1.2472   -1.4338   -0.4986 C   0  0  0  0  0  0  0  0  0  0  0  0
    1.4093   -0.2038    0.2872 C   0  0  0  0  0  0  0  0  0  0  0  0
    0.3161    2.9893   -0.6323 H   0  0  0  0  0  0  0  0  0  0  0  0
   -1.2543    1.7376    0.6661 H   0  0  0  0  0  0  0  0  0  0  0  0
    0.6301    0.7151    2.1254 H   0  0  0  0  0  0  0  0  0  0  0  0
   -0.4910   -1.7080    1.5402 H   0  0  0  0  0  0  0  0  0  0  0  0
   -1.4999   -0.3476    2.0744 H   0  0  0  0  0  0  0  0  0  0  0  0
   -2.4837   -0.1333    0.0329 H   0  0  0  0  0  0  0  0  0  0  0  0
   -1.5734   -1.6195   -0.5715 H   0  0  0  0  0  0  0  0  0  0  0  0
   -1.1166    0.7835   -1.7253 H   0  0  0  0  0  0  0  0  0  0  0  0
    1.2945    0.2788   -1.9331 H   0  0  0  0  0  0  0  0  0  0  0  0
    2.1775   -1.8564   -0.9496 H   0  0  0  0  0  0  0  0  0  0  0  0
    0.5794   -2.2285   -0.1154 H   0  0  0  0  0  0  0  0  0  0  0  0
    2.3419    0.3697    0.3272 H   0  0  0  0  0  0  0  0  0  0  0  0
  1  2  1  0
  2  3  1  0
  3  4  1  0
  4  5  1  0
  5  6  1  0
  6  7  1  0
  7  8  1  0
  8  9  1  0
  6  2  1  0
  9  7  1  0
  9  3  1  0
  1 10  1  0
  2 11  1  0
  3 12  1  0
  4 13  1  0
  4 14  1  0
  5 15  1  0
  5 16  1  0
  6 17  1  0
  7 18  1  0
  8 19  1  0
  8 20  1  0
  9 21  1  0
M  END
