
     RDKit          3D

 19 21  0  0  0  0  0  0  0  0999 V2000
   -0.9119   -2.4450    0.5574 O   0  0  0  0  0  0  0  0  0  0  0  0
   -0.4781   -1.1332    0.6457 C   0  0  0  0  0  0  0  0  0  0  0  0
   -1.4585   -0.1898   -0.0002 C   0  0  0  0  0  0  0  0  0  0  0  0
   -0.9269    1.2259    0.1809 C   0  0  0  0  0  0  0  0  0  0  0  0
    0.4179    1.4030   -0.4998 C   0  0  0  0  0  0  0  0  0  0  0  0
    1.6284    1.0016    0.2416 C   0  0  0  0  0  0  0  0  0  0  0  0
    1.7169   -0.1616    0.9620 O   0  0  0  0  0  0  0  0  0  0  0  0
    0.9309   -0.9510    0.1247 C   0  0  0  0  0  0  0  0  0  0  0  0
    1.0360    0.1285   -0.9124 C   0  0  0  0  0  0  0  0  0  0  0  0
   -1.3051   -2.6670   -0.3291 H   0  0  0  0  0  0  0  0  0  0  0  0
   -0.4613   -0.8775    1.7340 H   0  0  0  0  0  0  0  0  0  0  0  0
   -2.4013   -0.2471    0.5706 H   0  0  0  0  0  0  0  0  0  0  0  0
   -1.5792   -0.3422   -1.0798 H   0  0  0  0  0  0  0  0  0  0  0  0
   -1.6615    1.9531   -0.2348 H   0  0  0  0  0  0  0  0  0  0  0  0
   -0.7832    1.4089    1.2540 H   0  0  0  0  0  0  0  0  0  0  0  0
    0.5489    2.2460   -1.2110 H   0  0  0  0  0  0  0  0  0  0  0  0
    2.5855    1.5135    0.0133 H   0  0  0  0  0  0  0  0  0  0  0  0
    1.4125   -1.8783   -0.2444 H   0  0  0  0  0  0  0  0  0  0  0  0
    1.6899    0.0123   -1.7725 H   0  0  0  0  0  0  0  0  0  0  0  0
  1  2  1  0
  2  3  1  0
  3  4  1  0
  4  5  1  0
  5  6  1  0
  6  7  1  0
  7  8  1  0
  8  9  1  0
  8  2  1  0
  9  5  1  0
  9  6  1  0
  1 10  1  0
  2 11  1  0
  3 12  1  0
  3 13  1  0
  4 14  1  0
  4 15  1  0
  5 16  1  0
  6 17  1  0
  8 18  1  0
  9 19  1  0
M  END
