
     RDKit          3D

 21 22  0  0  0  0  0  0  0  0999 V2000
    2.1686    0.1556   -1.6256 O   0  0  0  0  0  0  0  0  0  0  0  0
    1.6586    0.5403   -0.3989 C   0  0  0  0  0  0  0  0  0  0  0  0
    1.8576   -0.4548    0.7101 C   0  0  0  0  0  0  0  0  0  0  0  0
    0.4959   -0.1133    0.2220 C   0  0  0  0  0  0  0  0  0  0  0  0
   -0.3398    0.6918    1.2045 C   0  0  0  0  0  0  0  0  0  0  0  0
   -1.4500    1.3203    0.4474 C   0  0  0  0  0  0  0  0  0  0  0  0
   -2.1200    0.5688   -0.4025 C   0  0  0  0  0  0  0  0  0  0  0  0
   -1.7688   -0.8438   -0.5847 C   0  0  0  0  0  0  0  0  0  0  0  0
   -0.3183   -1.1524   -0.4707 C   0  0  0  0  0  0  0  0  0  0  0  0
    3.1622    0.3287   -1.5973 H   0  0  0  0  0  0  0  0  0  0  0  0
    1.8080    1.6331   -0.1613 H   0  0  0  0  0  0  0  0  0  0  0  0
    2.3347   -1.4168    0.4836 H   0  0  0  0  0  0  0  0  0  0  0  0
    2.2006   -0.0372    1.6997 H   0  0  0  0  0  0  0  0  0  0  0  0
    0.3222    1.4688    1.6225 H   0  0  0  0  0  0  0  0  0  0  0  0
   -0.6824    0.0207    1.9993 H   0  0  0  0  0  0  0  0  0  0  0  0
   -1.6788    2.3640    0.6091 H   0  0  0  0  0  0  0  0  0  0  0  0
   -2.9379    1.0426   -0.9565 H   0  0  0  0  0  0  0  0  0  0  0  0
   -2.4083   -1.4435    0.1263 H   0  0  0  0  0  0  0  0  0  0  0  0
   -2.1550   -1.1470   -1.6022 H   0  0  0  0  0  0  0  0  0  0  0  0
    0.0785   -1.4300   -1.4691 H   0  0  0  0  0  0  0  0  0  0  0  0
   -0.2277   -2.0960    0.1443 H   0  0  0  0  0  0  0  0  0  0  0  0
  1  2  1  0
  2  3  1  0
  3  4  1  0
  4  5  1  0
  5  6  1  0
  6  7  2  0
  7  8  1  0
  8  9  1  0
  4  2  1  0
  9  4  1  0
  1 10  1  0
  2 11  1  0
  3 12  1  0
  3 13  1  0
  5 14  1  0
  5 15  1  0
  6 16  1  0
  7 17  1  0
  8 18  1  0
  8 19  1  0
  9 20  1  0
  9 21  1  0
M  END
