
     RDKit          3D

 17 19  0  0  0  0  0  0  0  0999 V2000
    1.6681    1.3258   -0.4206 O   0  0  0  0  0  0  0  0  0  0  0  0
    0.3393    1.0171   -0.3058 C   0  0  0  0  0  0  0  0  0  0  0  0
   -0.0223   -0.2510   -1.1081 C   0  0  0  0  0  0  0  0  0  0  0  0
    0.9138   -1.2061   -0.4062 C   0  0  0  0  0  0  0  0  0  0  0  0
    0.9545   -0.8533    0.8746 C   0  0  0  0  0  0  0  0  0  0  0  0
    0.0849    0.3251    1.0500 C   0  0  0  0  0  0  0  0  0  0  0  0
   -1.3347   -0.1271    0.8387 C   0  0  0  0  0  0  0  0  0  0  0  0
   -2.1179    0.6192   -0.0695 O   0  0  0  0  0  0  0  0  0  0  0  0
   -1.3951   -0.4979   -0.6042 C   0  0  0  0  0  0  0  0  0  0  0  0
    1.8718    2.2822   -0.4476 H   0  0  0  0  0  0  0  0  0  0  0  0
   -0.3603    1.8271   -0.4873 H   0  0  0  0  0  0  0  0  0  0  0  0
    0.1342   -0.1610   -2.1548 H   0  0  0  0  0  0  0  0  0  0  0  0
    1.4163   -1.9998   -0.9205 H   0  0  0  0  0  0  0  0  0  0  0  0
    1.5182   -1.3343    1.6546 H   0  0  0  0  0  0  0  0  0  0  0  0
    0.2716    0.9506    1.8938 H   0  0  0  0  0  0  0  0  0  0  0  0
   -1.8837   -0.6570    1.6067 H   0  0  0  0  0  0  0  0  0  0  0  0
   -2.0585   -1.2596   -0.9939 H   0  0  0  0  0  0  0  0  0  0  0  0
  1  2  1  0
  2  3  1  0
  3  4  1  0
  4  5  2  0
  5  6  1  0
  6  7  1  0
  7  8  1  0
  8  9  1  0
  6  2  1  0
  9  7  1  0
  9  3  1  0
  1 10  1  0
  2 11  1  0
  3 12  1  0
  4 13  1  0
  5 14  1  0
  6 15  1  0
  7 16  1  0
  9 17  1  0
M  END
