
     RDKit          3D

 17 19  0  0  0  0  0  0  0  0999 V2000
    2.0706    0.0149   -0.2482 O   0  0  0  0  0  0  0  0  0  0  0  0
    0.9974   -0.4788    0.4515 C   0  0  0  0  0  0  0  0  0  0  0  0
    0.3504    0.7090    1.1766 C   0  0  0  0  0  0  0  0  0  0  0  0
   -0.0543    1.5235   -0.0307 C   0  0  0  0  0  0  0  0  0  0  0  0
   -0.9276    0.4593   -0.7031 C   0  0  0  0  0  0  0  0  0  0  0  0
   -1.3372   -0.4173    0.3771 C   0  0  0  0  0  0  0  0  0  0  0  0
   -0.8412    0.1611    1.5690 O   0  0  0  0  0  0  0  0  0  0  0  0
   -0.1957   -0.7900   -0.4674 C   0  0  0  0  0  0  0  0  0  0  0  0
   -0.1518   -1.8467   -1.3074 O   0  0  0  0  0  0  0  0  0  0  0  0
    2.2298   -0.4667   -1.0815 H   0  0  0  0  0  0  0  0  0  0  0  0
    1.2164   -1.3005    1.1304 H   0  0  0  0  0  0  0  0  0  0  0  0
    0.9633    1.1855    1.8946 H   0  0  0  0  0  0  0  0  0  0  0  0
    0.8318    1.6343   -0.6636 H   0  0  0  0  0  0  0  0  0  0  0  0
   -0.5984    2.4307    0.2024 H   0  0  0  0  0  0  0  0  0  0  0  0
   -1.4715    0.6985   -1.6006 H   0  0  0  0  0  0  0  0  0  0  0  0
   -2.2398   -1.0201    0.4102 H   0  0  0  0  0  0  0  0  0  0  0  0
   -0.8422   -2.4968   -1.1092 H   0  0  0  0  0  0  0  0  0  0  0  0
  1  2  1  0
  2  3  1  0
  3  4  1  0
  4  5  1  0
  5  6  1  0
  6  7  1  0
  6  8  1  0
  8  9  1  0
  8  2  1  0
  7  3  1  0
  8  5  1  0
  1 10  1  0
  2 11  1  0
  3 12  1  0
  4 13  1  0
  4 14  1  0
  5 15  1  0
  6 16  1  0
  9 17  1  0
M  END
