
     RDKit          3D

 16 17  0  0  0  0  0  0  0  0999 V2000
   -1.0267    0.7747    1.6870 O   0  0  0  0  0  0  0  0  0  0  0  0
   -0.8967   -0.0620    0.6216 C   0  0  0  0  0  0  0  0  0  0  0  0
    0.4787   -0.7616    0.5833 C   0  0  0  0  0  0  0  0  0  0  0  0
    0.3721   -1.3190   -0.8214 C   0  0  0  0  0  0  0  0  0  0  0  0
   -0.2821   -0.4316   -1.5603 C   0  0  0  0  0  0  0  0  0  0  0  0
   -0.5893    0.7117   -0.6772 C   0  0  0  0  0  0  0  0  0  0  0  0
    0.7176    1.3044   -0.2582 C   0  0  0  0  0  0  0  0  0  0  0  0
    1.3482    0.4055    0.4890 C   0  0  0  0  0  0  0  0  0  0  0  0
   -1.3493    0.2783    2.4544 H   0  0  0  0  0  0  0  0  0  0  0  0
   -1.6617   -0.8167    0.4820 H   0  0  0  0  0  0  0  0  0  0  0  0
    0.6337   -1.4759    1.3410 H   0  0  0  0  0  0  0  0  0  0  0  0
    0.7490   -2.2655   -1.1918 H   0  0  0  0  0  0  0  0  0  0  0  0
   -0.5411   -0.5191   -2.5955 H   0  0  0  0  0  0  0  0  0  0  0  0
   -1.3427    1.3872   -0.9780 H   0  0  0  0  0  0  0  0  0  0  0  0
    1.0734    2.2730   -0.5156 H   0  0  0  0  0  0  0  0  0  0  0  0
    2.3169    0.5166    0.9397 H   0  0  0  0  0  0  0  0  0  0  0  0
  1  2  1  0
  2  3  1  0
  3  4  1  0
  4  5  2  0
  5  6  1  0
  6  7  1  0
  7  8  2  0
  6  2  1  0
  8  3  1  0
  1  9  1  0
  2 10  1  0
  3 11  1  0
  4 12  1  0
  5 13  1  0
  6 14  1  0
  7 15  1  0
  8 16  1  0
M  END
