
     RDKit          3D

 19 20  0  0  0  0  0  0  0  0999 V2000
   -0.5410    1.9939    0.9590 O   0  0  0  0  0  0  0  0  0  0  0  0
   -0.7171    0.8979    0.1614 C   0  0  0  0  0  0  0  0  0  0  0  0
    0.3060    0.8396   -0.9869 C   0  0  0  0  0  0  0  0  0  0  0  0
    1.5498    0.7821   -0.1570 C   0  0  0  0  0  0  0  0  0  0  0  0
    1.2690   -0.0742    0.8260 C   0  0  0  0  0  0  0  0  0  0  0  0
   -0.1901   -0.3856    0.8304 C   0  0  0  0  0  0  0  0  0  0  0  0
   -0.7357   -0.6648    2.0123 O   0  0  0  0  0  0  0  0  0  0  0  0
   -0.4332   -1.3598   -0.2903 C   0  0  0  0  0  0  0  0  0  0  0  0
    0.0660   -0.5471   -1.4969 C   0  0  0  0  0  0  0  0  0  0  0  0
   -1.4426    2.3193    1.2613 H   0  0  0  0  0  0  0  0  0  0  0  0
   -1.7311    0.7136   -0.1789 H   0  0  0  0  0  0  0  0  0  0  0  0
    0.2415    1.6427   -1.6765 H   0  0  0  0  0  0  0  0  0  0  0  0
    2.4818    1.2870   -0.2728 H   0  0  0  0  0  0  0  0  0  0  0  0
    1.9471   -0.5162    1.5475 H   0  0  0  0  0  0  0  0  0  0  0  0
   -1.0115   -1.5767    2.2070 H   0  0  0  0  0  0  0  0  0  0  0  0
    0.0878   -2.3092   -0.1882 H   0  0  0  0  0  0  0  0  0  0  0  0
   -1.5324   -1.4506   -0.4468 H   0  0  0  0  0  0  0  0  0  0  0  0
   -0.6501   -0.5503   -2.3163 H   0  0  0  0  0  0  0  0  0  0  0  0
    1.0359   -1.0416   -1.7941 H   0  0  0  0  0  0  0  0  0  0  0  0
  1  2  1  0
  2  3  1  0
  3  4  1  0
  4  5  2  0
  5  6  1  0
  6  7  1  0
  6  8  1  0
  8  9  1  0
  6  2  1  0
  9  3  1  0
  1 10  1  0
  2 11  1  0
  3 12  1  0
  4 13  1  0
  5 14  1  0
  7 15  1  0
  8 16  1  0
  8 17  1  0
  9 18  1  0
  9 19  1  0
M  END
