
     RDKit          3D

 18 19  0  0  0  0  0  0  0  0999 V2000
   -2.6898   -0.5907    0.4978 O   0  0  0  0  0  0  0  0  0  0  0  0
   -1.5331   -0.7718   -0.2983 C   0  0  0  0  0  0  0  0  0  0  0  0
   -0.2857   -0.8117    0.3592 C   0  0  0  0  0  0  0  0  0  0  0  0
    1.1004   -1.1222   -0.0744 C   0  0  0  0  0  0  0  0  0  0  0  0
    1.8335    0.1657    0.0994 C   0  0  0  0  0  0  0  0  0  0  0  0
    1.2606    1.3600    0.1503 C   0  0  0  0  0  0  0  0  0  0  0  0
   -0.2449    1.5298    0.0322 C   0  0  0  0  0  0  0  0  0  0  0  0
   -0.6891    0.3007   -0.6610 C   0  0  0  0  0  0  0  0  0  0  0  0
   -2.7408   -1.4073    1.0819 H   0  0  0  0  0  0  0  0  0  0  0  0
   -1.7575   -1.5583   -1.0731 H   0  0  0  0  0  0  0  0  0  0  0  0
   -0.2770   -0.5209    1.4521 H   0  0  0  0  0  0  0  0  0  0  0  0
    1.5780   -1.9601    0.4267 H   0  0  0  0  0  0  0  0  0  0  0  0
    1.0757   -1.3632   -1.1688 H   0  0  0  0  0  0  0  0  0  0  0  0
    2.9046    0.1390    0.1912 H   0  0  0  0  0  0  0  0  0  0  0  0
    1.8125    2.2785    0.2770 H   0  0  0  0  0  0  0  0  0  0  0  0
   -0.4237    2.4072   -0.6109 H   0  0  0  0  0  0  0  0  0  0  0  0
   -0.7121    1.6773    1.0048 H   0  0  0  0  0  0  0  0  0  0  0  0
   -0.2118    0.2480   -1.6861 H   0  0  0  0  0  0  0  0  0  0  0  0
  1  2  1  0
  2  3  1  0
  3  4  1  0
  4  5  1  0
  5  6  2  0
  6  7  1  0
  7  8  1  0
  8  2  1  0
  8  3  1  0
  1  9  1  0
  2 10  1  0
  3 11  1  0
  4 12  1  0
  4 13  1  0
  5 14  1  0
  6 15  1  0
  7 16  1  0
  7 17  1  0
  8 18  1  0
M  END
