
     RDKit          3D

 19 20  0  0  0  0  0  0  0  0999 V2000
   -2.8262    0.6993    0.3567 O   0  0  0  0  0  0  0  0  0  0  0  0
   -1.7490    0.1523   -0.3286 C   0  0  0  0  0  0  0  0  0  0  0  0
   -1.4064   -1.1747    0.2577 C   0  0  0  0  0  0  0  0  0  0  0  0
   -0.2052   -1.0927    0.8978 O   0  0  0  0  0  0  0  0  0  0  0  0
    0.3979    0.1034    0.6399 C   0  0  0  0  0  0  0  0  0  0  0  0
    1.7148   -0.1883   -0.0728 C   0  0  0  0  0  0  0  0  0  0  0  0
    2.9307    0.3809    0.3809 C   0  0  0  0  0  0  0  0  0  0  0  0
    2.5756   -1.0141    0.7794 O   0  0  0  0  0  0  0  0  0  0  0  0
   -0.4919    0.9609   -0.1812 C   0  0  0  0  0  0  0  0  0  0  0  0
   -3.5990    0.1010    0.1915 H   0  0  0  0  0  0  0  0  0  0  0  0
   -1.9927    0.0411   -1.4229 H   0  0  0  0  0  0  0  0  0  0  0  0
   -1.3879   -1.9766   -0.5273 H   0  0  0  0  0  0  0  0  0  0  0  0
   -2.1824   -1.5314    0.9962 H   0  0  0  0  0  0  0  0  0  0  0  0
    0.5779    0.6158    1.6068 H   0  0  0  0  0  0  0  0  0  0  0  0
    1.6325   -0.6120   -1.0938 H   0  0  0  0  0  0  0  0  0  0  0  0
    2.9774    1.0606    1.2535 H   0  0  0  0  0  0  0  0  0  0  0  0
    3.8446    0.2984   -0.2422 H   0  0  0  0  0  0  0  0  0  0  0  0
   -0.0767    1.2425   -1.1679 H   0  0  0  0  0  0  0  0  0  0  0  0
   -0.7339    1.9336    0.3305 H   0  0  0  0  0  0  0  0  0  0  0  0
  1  2  1  0
  2  3  1  0
  3  4  1  0
  4  5  1  0
  5  6  1  0
  6  7  1  0
  7  8  1  0
  5  9  1  0
  9  2  1  0
  8  6  1  0
  1 10  1  0
  2 11  1  0
  3 12  1  0
  3 13  1  0
  5 14  1  0
  6 15  1  0
  7 16  1  0
  7 17  1  0
  9 18  1  0
  9 19  1  0
M  END
