
     RDKit          3D

 21 22  0  0  0  0  0  0  0  0999 V2000
   -2.0475   -1.3915   -0.6844 O   0  0  0  0  0  0  0  0  0  0  0  0
   -2.0883   -0.3891    0.2811 C   0  0  0  0  0  0  0  0  0  0  0  0
   -2.0077    1.0446   -0.1366 C   0  0  0  0  0  0  0  0  0  0  0  0
   -0.8926    0.3891    0.6381 C   0  0  0  0  0  0  0  0  0  0  0  0
    0.3882    0.2316   -0.1389 C   0  0  0  0  0  0  0  0  0  0  0  0
    0.2839    0.5366   -1.4726 O   0  0  0  0  0  0  0  0  0  0  0  0
    1.0385   -1.1521    0.0102 C   0  0  0  0  0  0  0  0  0  0  0  0
    2.3696   -0.3947   -0.1012 C   0  0  0  0  0  0  0  0  0  0  0  0
    1.6218    0.7700    0.5597 C   0  0  0  0  0  0  0  0  0  0  0  0
   -2.2815   -2.2525   -0.2789 H   0  0  0  0  0  0  0  0  0  0  0  0
   -2.7811   -0.6181    1.1243 H   0  0  0  0  0  0  0  0  0  0  0  0
   -2.6381    1.8116    0.3486 H   0  0  0  0  0  0  0  0  0  0  0  0
   -1.8573    1.2535   -1.2264 H   0  0  0  0  0  0  0  0  0  0  0  0
   -0.7461    0.7659    1.6683 H   0  0  0  0  0  0  0  0  0  0  0  0
    0.6564    1.4182   -1.7152 H   0  0  0  0  0  0  0  0  0  0  0  0
    0.8249   -1.8103   -0.8257 H   0  0  0  0  0  0  0  0  0  0  0  0
    0.9432   -1.5437    1.0288 H   0  0  0  0  0  0  0  0  0  0  0  0
    2.5943   -0.1978   -1.1603 H   0  0  0  0  0  0  0  0  0  0  0  0
    3.1288   -0.8678    0.5119 H   0  0  0  0  0  0  0  0  0  0  0  0
    1.9483    1.7595    0.2214 H   0  0  0  0  0  0  0  0  0  0  0  0
    1.5420    0.6370    1.6496 H   0  0  0  0  0  0  0  0  0  0  0  0
  1  2  1  0
  2  3  1  0
  3  4  1  0
  4  5  1  0
  5  6  1  0
  5  7  1  0
  7  8  1  0
  8  9  1  0
  4  2  1  0
  9  5  1  0
  1 10  1  0
  2 11  1  0
  3 12  1  0
  3 13  1  0
  4 14  1  0
  6 15  1  0
  7 16  1  0
  7 17  1  0
  8 18  1  0
  8 19  1  0
  9 20  1  0
  9 21  1  0
M  END
