
     RDKit          3D

 19 20  0  0  0  0  0  0  0  0999 V2000
    2.3684   -1.3835    0.4461 O   0  0  0  0  0  0  0  0  0  0  0  0
    1.3264   -0.4683    0.5996 C   0  0  0  0  0  0  0  0  0  0  0  0
    1.6157    0.9803    0.1504 C   0  0  0  0  0  0  0  0  0  0  0  0
    0.6947    0.1326   -0.6042 C   0  0  0  0  0  0  0  0  0  0  0  0
   -0.7775    0.3703   -0.6657 C   0  0  0  0  0  0  0  0  0  0  0  0
   -1.2189    0.9445   -1.8708 O   0  0  0  0  0  0  0  0  0  0  0  0
   -1.6269    0.4998    0.5168 C   0  0  0  0  0  0  0  0  0  0  0  0
   -1.6061   -0.8376   -0.1590 C   0  0  0  0  0  0  0  0  0  0  0  0
   -0.9370   -1.8276    0.5288 O   0  0  0  0  0  0  0  0  0  0  0  0
    3.0058   -1.0572   -0.2432 H   0  0  0  0  0  0  0  0  0  0  0  0
    0.7746   -0.5826    1.5478 H   0  0  0  0  0  0  0  0  0  0  0  0
    1.3105    1.7530    0.8687 H   0  0  0  0  0  0  0  0  0  0  0  0
    2.6561    1.1495   -0.2411 H   0  0  0  0  0  0  0  0  0  0  0  0
    1.1026   -0.2771   -1.5757 H   0  0  0  0  0  0  0  0  0  0  0  0
   -1.1062    1.9305   -1.8241 H   0  0  0  0  0  0  0  0  0  0  0  0
   -2.5999    1.0493    0.3582 H   0  0  0  0  0  0  0  0  0  0  0  0
   -1.2501    0.6305    1.5388 H   0  0  0  0  0  0  0  0  0  0  0  0
   -2.4283   -1.1445   -0.8210 H   0  0  0  0  0  0  0  0  0  0  0  0
   -1.3037   -1.8619    1.4496 H   0  0  0  0  0  0  0  0  0  0  0  0
  1  2  1  0
  2  3  1  0
  3  4  1  0
  4  5  1  0
  5  6  1  0
  5  7  1  0
  7  8  1  0
  8  9  1  0
  4  2  1  0
  8  5  1  0
  1 10  1  0
  2 11  1  0
  3 12  1  0
  3 13  1  0
  4 14  1  0
  6 15  1  0
  7 16  1  0
  7 17  1  0
  8 18  1  0
  9 19  1  0
M  END
