
     RDKit          3D

 21 22  0  0  0  0  0  0  0  0999 V2000
   -0.3483    1.3365   -1.9342 O   0  0  0  0  0  0  0  0  0  0  0  0
   -0.6163    0.7700   -0.7217 C   0  0  0  0  0  0  0  0  0  0  0  0
   -1.9790    0.0633   -0.6145 C   0  0  0  0  0  0  0  0  0  0  0  0
   -1.2251   -0.9166    0.3083 C   0  0  0  0  0  0  0  0  0  0  0  0
   -1.2258   -0.3679    1.5876 O   0  0  0  0  0  0  0  0  0  0  0  0
   -0.0426   -0.6461   -0.5541 C   0  0  0  0  0  0  0  0  0  0  0  0
    1.3250   -0.7365   -0.0155 C   0  0  0  0  0  0  0  0  0  0  0  0
    1.7148   -0.1973    1.3061 C   0  0  0  0  0  0  0  0  0  0  0  0
    2.0570    0.6029    0.1055 C   0  0  0  0  0  0  0  0  0  0  0  0
   -0.6230    2.2814   -1.9044 H   0  0  0  0  0  0  0  0  0  0  0  0
   -0.4704    1.3696    0.1876 H   0  0  0  0  0  0  0  0  0  0  0  0
   -2.2333   -0.4520   -1.5418 H   0  0  0  0  0  0  0  0  0  0  0  0
   -2.7500    0.6422   -0.1124 H   0  0  0  0  0  0  0  0  0  0  0  0
   -1.6668   -1.9295    0.2512 H   0  0  0  0  0  0  0  0  0  0  0  0
   -1.9546   -0.8160    2.0969 H   0  0  0  0  0  0  0  0  0  0  0  0
   -0.1544   -1.1898   -1.5162 H   0  0  0  0  0  0  0  0  0  0  0  0
    1.9642   -1.5382   -0.4535 H   0  0  0  0  0  0  0  0  0  0  0  0
    0.9852    0.2133    2.0235 H   0  0  0  0  0  0  0  0  0  0  0  0
    2.5880   -0.6682    1.8199 H   0  0  0  0  0  0  0  0  0  0  0  0
    3.1250    0.6429   -0.2195 H   0  0  0  0  0  0  0  0  0  0  0  0
    1.5304    1.5362   -0.0988 H   0  0  0  0  0  0  0  0  0  0  0  0
  1  2  1  0
  2  3  1  0
  3  4  1  0
  4  5  1  0
  4  6  1  0
  6  7  1  0
  7  8  1  0
  8  9  1  0
  6  2  1  0
  9  7  1  0
  1 10  1  0
  2 11  1  0
  3 12  1  0
  3 13  1  0
  4 14  1  0
  5 15  1  0
  6 16  1  0
  7 17  1  0
  8 18  1  0
  8 19  1  0
  9 20  1  0
  9 21  1  0
M  END
