
     RDKit          3D

 19 21  0  0  0  0  0  0  0  0999 V2000
   -1.0022    2.0583   -0.5071 O   0  0  0  0  0  0  0  0  0  0  0  0
   -0.6723    1.0457    0.3596 C   0  0  0  0  0  0  0  0  0  0  0  0
   -1.4299   -0.2671    0.1400 C   0  0  0  0  0  0  0  0  0  0  0  0
   -1.1842   -1.3239    1.1260 C   0  0  0  0  0  0  0  0  0  0  0  0
   -0.0639   -1.0307    0.2218 C   0  0  0  0  0  0  0  0  0  0  0  0
    0.1655   -1.9508   -0.8086 O   0  0  0  0  0  0  0  0  0  0  0  0
    0.5719    0.2774    0.0835 C   0  0  0  0  0  0  0  0  0  0  0  0
    1.4847    0.5384   -1.0159 C   0  0  0  0  0  0  0  0  0  0  0  0
    1.9033    0.6792    0.4562 C   0  0  0  0  0  0  0  0  0  0  0  0
   -1.6734    1.7654   -1.1751 H   0  0  0  0  0  0  0  0  0  0  0  0
   -0.6891    1.3661    1.4374 H   0  0  0  0  0  0  0  0  0  0  0  0
   -1.9561   -0.3936   -0.8011 H   0  0  0  0  0  0  0  0  0  0  0  0
   -1.1730   -0.9873    2.1991 H   0  0  0  0  0  0  0  0  0  0  0  0
   -1.7237   -2.2789    1.0069 H   0  0  0  0  0  0  0  0  0  0  0  0
   -0.6623   -2.3155   -1.1904 H   0  0  0  0  0  0  0  0  0  0  0  0
    1.4556    1.4354   -1.6421 H   0  0  0  0  0  0  0  0  0  0  0  0
    1.9915   -0.3279   -1.5239 H   0  0  0  0  0  0  0  0  0  0  0  0
    2.0343    1.7571    0.7687 H   0  0  0  0  0  0  0  0  0  0  0  0
    2.6232   -0.0471    0.8650 H   0  0  0  0  0  0  0  0  0  0  0  0
  1  2  1  0
  2  3  1  0
  3  4  1  0
  4  5  1  0
  5  6  1  0
  5  7  1  0
  7  8  1  0
  8  9  1  0
  7  2  1  0
  5  3  1  0
  9  7  1  0
  1 10  1  0
  2 11  1  0
  3 12  1  0
  4 13  1  0
  4 14  1  0
  6 15  1  0
  8 16  1  0
  8 17  1  0
  9 18  1  0
  9 19  1  0
M  END
