
     RDKit          3D

 19 20  0  0  0  0  0  0  0  0999 V2000
   -1.3129    1.9429   -0.3182 O   0  0  0  0  0  0  0  0  0  0  0  0
   -0.5990    0.9052    0.2480 C   0  0  0  0  0  0  0  0  0  0  0  0
    0.8396    1.0920   -0.0682 C   0  0  0  0  0  0  0  0  0  0  0  0
    1.7017   -0.1479    0.2245 C   0  0  0  0  0  0  0  0  0  0  0  0
    1.0374   -1.2453   -0.4875 C   0  0  0  0  0  0  0  0  0  0  0  0
    0.5178   -2.3932   -0.1248 O   0  0  0  0  0  0  0  0  0  0  0  0
   -0.2396   -1.4463    0.3744 C   0  0  0  0  0  0  0  0  0  0  0  0
   -1.1548   -0.4559   -0.2033 C   0  0  0  0  0  0  0  0  0  0  0  0
   -2.4687   -0.5507    0.1439 O   0  0  0  0  0  0  0  0  0  0  0  0
   -1.1281    1.8993   -1.3074 H   0  0  0  0  0  0  0  0  0  0  0  0
   -0.7198    0.9489    1.3621 H   0  0  0  0  0  0  0  0  0  0  0  0
    0.9291    1.2312   -1.1816 H   0  0  0  0  0  0  0  0  0  0  0  0
    1.2064    1.9735    0.4464 H   0  0  0  0  0  0  0  0  0  0  0  0
    2.7136    0.1092   -0.0951 H   0  0  0  0  0  0  0  0  0  0  0  0
    1.6683   -0.2432    1.3479 H   0  0  0  0  0  0  0  0  0  0  0  0
    0.8719   -1.0045   -1.5786 H   0  0  0  0  0  0  0  0  0  0  0  0
   -0.1188   -1.3182    1.4892 H   0  0  0  0  0  0  0  0  0  0  0  0
   -1.1007   -0.4204   -1.3248 H   0  0  0  0  0  0  0  0  0  0  0  0
   -2.6432   -0.8763    1.0534 H   0  0  0  0  0  0  0  0  0  0  0  0
  1  2  1  0
  2  3  1  0
  3  4  1  0
  4  5  1  0
  5  6  1  0
  6  7  1  0
  7  8  1  0
  8  9  1  0
  8  2  1  0
  7  5  1  0
  1 10  1  0
  2 11  1  0
  3 12  1  0
  3 13  1  0
  4 14  1  0
  4 15  1  0
  5 16  1  0
  7 17  1  0
  8 18  1  0
  9 19  1  0
M  END
