
     RDKit          3D

 19 21  0  0  0  0  0  0  0  0999 V2000
    2.2990    1.1124   -0.0681 O   0  0  0  0  0  0  0  0  0  0  0  0
    1.2021    0.4149   -0.5198 C   0  0  0  0  0  0  0  0  0  0  0  0
    1.4638   -1.0639   -0.3541 C   0  0  0  0  0  0  0  0  0  0  0  0
    0.3772   -1.7374   -0.8717 O   0  0  0  0  0  0  0  0  0  0  0  0
   -0.8127   -1.4707   -0.2613 C   0  0  0  0  0  0  0  0  0  0  0  0
   -1.6778   -0.3258   -0.6034 C   0  0  0  0  0  0  0  0  0  0  0  0
   -1.1810    1.0567   -0.7876 C   0  0  0  0  0  0  0  0  0  0  0  0
   -0.0711    0.8040    0.1920 C   0  0  0  0  0  0  0  0  0  0  0  0
   -0.8360   -0.3761    0.7090 C   0  0  0  0  0  0  0  0  0  0  0  0
    2.2561    2.0317   -0.4637 H   0  0  0  0  0  0  0  0  0  0  0  0
    1.1030    0.5877   -1.6238 H   0  0  0  0  0  0  0  0  0  0  0  0
    2.3406   -1.3054   -1.0007 H   0  0  0  0  0  0  0  0  0  0  0  0
    1.7394   -1.3511    0.6670 H   0  0  0  0  0  0  0  0  0  0  0  0
   -1.3762   -2.3983    0.0488 H   0  0  0  0  0  0  0  0  0  0  0  0
   -2.7802   -0.4135   -0.4731 H   0  0  0  0  0  0  0  0  0  0  0  0
   -1.8487    1.8722   -0.3871 H   0  0  0  0  0  0  0  0  0  0  0  0
   -0.8668    1.3423   -1.8042 H   0  0  0  0  0  0  0  0  0  0  0  0
    0.1002    1.5597    0.9627 H   0  0  0  0  0  0  0  0  0  0  0  0
   -1.4308   -0.3394    1.6135 H   0  0  0  0  0  0  0  0  0  0  0  0
  1  2  1  0
  2  3  1  0
  3  4  1  0
  4  5  1  0
  5  6  1  0
  6  7  1  0
  7  8  1  0
  8  9  1  0
  8  2  1  0
  9  5  1  0
  9  6  1  0
  1 10  1  0
  2 11  1  0
  3 12  1  0
  3 13  1  0
  5 14  1  0
  6 15  1  0
  7 16  1  0
  7 17  1  0
  8 18  1  0
  9 19  1  0
M  END
