
     RDKit          3D

 16 17  0  0  0  0  0  0  0  0999 V2000
   -2.0527   -1.2422   -0.2987 O   0  0  0  0  0  0  0  0  0  0  0  0
   -1.1274   -0.5883    0.5231 C   0  0  0  0  0  0  0  0  0  0  0  0
   -1.2906    0.8644    0.3408 C   0  0  0  0  0  0  0  0  0  0  0  0
   -0.3125    1.3986   -0.3487 C   0  0  0  0  0  0  0  0  0  0  0  0
    0.6472    0.3333   -0.7181 C   0  0  0  0  0  0  0  0  0  0  0  0
    1.4554   -0.1837    0.4161 C   0  0  0  0  0  0  0  0  0  0  0  0
    2.6617   -0.7748    0.0609 O   0  0  0  0  0  0  0  0  0  0  0  0
    0.2308   -0.8940    0.0255 C   0  0  0  0  0  0  0  0  0  0  0  0
   -2.6904   -0.6029   -0.6904 H   0  0  0  0  0  0  0  0  0  0  0  0
   -1.2840   -0.8830    1.5917 H   0  0  0  0  0  0  0  0  0  0  0  0
   -2.1485    1.4179    0.7485 H   0  0  0  0  0  0  0  0  0  0  0  0
   -0.2096    2.4300   -0.6096 H   0  0  0  0  0  0  0  0  0  0  0  0
    0.9773    0.2212   -1.7704 H   0  0  0  0  0  0  0  0  0  0  0  0
    1.5184    0.4184    1.3375 H   0  0  0  0  0  0  0  0  0  0  0  0
    3.2841   -0.0260   -0.1590 H   0  0  0  0  0  0  0  0  0  0  0  0
    0.3408   -1.8890   -0.4494 H   0  0  0  0  0  0  0  0  0  0  0  0
  1  2  1  0
  2  3  1  0
  3  4  2  0
  4  5  1  0
  5  6  1  0
  6  7  1  0
  6  8  1  0
  8  2  1  0
  8  5  1  0
  1  9  1  0
  2 10  1  0
  3 11  1  0
  4 12  1  0
  5 13  1  0
  6 14  1  0
  7 15  1  0
  8 16  1  0
M  END
