
     RDKit          3D

 19 21  0  0  0  0  0  0  0  0999 V2000
    2.6656    1.1699   -0.0704 O   0  0  0  0  0  0  0  0  0  0  0  0
    1.5131    0.5172   -0.4550 C   0  0  0  0  0  0  0  0  0  0  0  0
    1.4264   -0.9404   -0.1456 C   0  0  0  0  0  0  0  0  0  0  0  0
    0.0223   -1.2853   -0.6342 C   0  0  0  0  0  0  0  0  0  0  0  0
   -0.6827   -0.1255    0.0786 C   0  0  0  0  0  0  0  0  0  0  0  0
   -1.9803   -0.2521    0.6833 C   0  0  0  0  0  0  0  0  0  0  0  0
   -1.7366    0.6418   -0.5476 C   0  0  0  0  0  0  0  0  0  0  0  0
    0.5172    0.5140    0.6941 C   0  0  0  0  0  0  0  0  0  0  0  0
    1.2479   -0.5677    1.1957 O   0  0  0  0  0  0  0  0  0  0  0  0
    2.3688    2.0064    0.4080 H   0  0  0  0  0  0  0  0  0  0  0  0
    1.1017    0.7650   -1.4365 H   0  0  0  0  0  0  0  0  0  0  0  0
    2.2208   -1.6000   -0.3903 H   0  0  0  0  0  0  0  0  0  0  0  0
   -0.3244   -2.2564   -0.2926 H   0  0  0  0  0  0  0  0  0  0  0  0
   -0.0197   -1.1059   -1.7112 H   0  0  0  0  0  0  0  0  0  0  0  0
   -2.2711    0.2288    1.6250 H   0  0  0  0  0  0  0  0  0  0  0  0
   -2.5464   -1.2056    0.5006 H   0  0  0  0  0  0  0  0  0  0  0  0
   -2.1906    0.3526   -1.4938 H   0  0  0  0  0  0  0  0  0  0  0  0
   -1.7578    1.7501   -0.3480 H   0  0  0  0  0  0  0  0  0  0  0  0
    0.4256    1.3933    1.2873 H   0  0  0  0  0  0  0  0  0  0  0  0
  1  2  1  0
  2  3  1  0
  3  4  1  0
  4  5  1  0
  5  6  1  0
  6  7  1  0
  5  8  1  0
  8  9  1  0
  8  2  1  0
  9  3  1  0
  7  5  1  0
  1 10  1  0
  2 11  1  0
  3 12  1  0
  4 13  1  0
  4 14  1  0
  6 15  1  0
  6 16  1  0
  7 17  1  0
  7 18  1  0
  8 19  1  0
M  END
