
     RDKit          3D

 19 21  0  0  0  0  0  0  0  0999 V2000
    2.6638    0.7298   -0.4938 O   0  0  0  0  0  0  0  0  0  0  0  0
    1.3839    0.2497   -0.6240 C   0  0  0  0  0  0  0  0  0  0  0  0
    1.2513   -1.1359    0.0419 C   0  0  0  0  0  0  0  0  0  0  0  0
    0.1599   -0.7511    1.0415 C   0  0  0  0  0  0  0  0  0  0  0  0
    0.7173    0.4494    1.5504 O   0  0  0  0  0  0  0  0  0  0  0  0
    0.3908    0.9849    0.2812 C   0  0  0  0  0  0  0  0  0  0  0  0
   -0.7671    0.0918    0.2949 C   0  0  0  0  0  0  0  0  0  0  0  0
   -1.6475   -0.2352   -0.7816 C   0  0  0  0  0  0  0  0  0  0  0  0
   -2.1432    0.3724    0.5513 C   0  0  0  0  0  0  0  0  0  0  0  0
    2.7544    1.5218   -1.0633 H   0  0  0  0  0  0  0  0  0  0  0  0
    0.9988    0.2228   -1.6524 H   0  0  0  0  0  0  0  0  0  0  0  0
    0.9022   -1.8881   -0.6693 H   0  0  0  0  0  0  0  0  0  0  0  0
    2.1937   -1.3949    0.5606 H   0  0  0  0  0  0  0  0  0  0  0  0
   -0.1448   -1.4847    1.7509 H   0  0  0  0  0  0  0  0  0  0  0  0
    0.3236    2.0396    0.1923 H   0  0  0  0  0  0  0  0  0  0  0  0
   -1.7759    0.4714   -1.6477 H   0  0  0  0  0  0  0  0  0  0  0  0
   -1.9395   -1.2550   -1.0202 H   0  0  0  0  0  0  0  0  0  0  0  0
   -2.5840    1.3720    0.5249 H   0  0  0  0  0  0  0  0  0  0  0  0
   -2.7379   -0.3606    1.1621 H   0  0  0  0  0  0  0  0  0  0  0  0
  1  2  1  0
  2  3  1  0
  3  4  1  0
  4  5  1  0
  5  6  1  0
  6  7  1  0
  7  8  1  0
  8  9  1  0
  6  2  1  0
  9  7  1  0
  7  4  1  0
  1 10  1  0
  2 11  1  0
  3 12  1  0
  3 13  1  0
  4 14  1  0
  6 15  1  0
  8 16  1  0
  8 17  1  0
  9 18  1  0
  9 19  1  0
M  END
