
     RDKit          3D

 15 16  0  0  0  0  0  0  0  0999 V2000
   -0.8433    1.6434   -0.4262 O   0  0  0  0  0  0  0  0  0  0  0  0
   -0.3352    0.4173   -0.8923 C   0  0  0  0  0  0  0  0  0  0  0  0
   -1.2216   -0.7586   -0.4530 C   0  0  0  0  0  0  0  0  0  0  0  0
   -0.3916   -0.7620    0.8388 C   0  0  0  0  0  0  0  0  0  0  0  0
    0.6856   -0.0976    0.0869 C   0  0  0  0  0  0  0  0  0  0  0  0
    1.8337    0.5363    0.4127 C   0  0  0  0  0  0  0  0  0  0  0  0
    1.8287   -0.7118   -0.3195 O   0  0  0  0  0  0  0  0  0  0  0  0
   -1.6715    1.4802    0.0617 H   0  0  0  0  0  0  0  0  0  0  0  0
   -0.0562    0.3992   -1.9522 H   0  0  0  0  0  0  0  0  0  0  0  0
   -1.0445   -1.6436   -1.0831 H   0  0  0  0  0  0  0  0  0  0  0  0
   -2.2667   -0.4848   -0.3290 H   0  0  0  0  0  0  0  0  0  0  0  0
   -0.1664   -1.7584    1.2293 H   0  0  0  0  0  0  0  0  0  0  0  0
   -0.9472   -0.1179    1.5781 H   0  0  0  0  0  0  0  0  0  0  0  0
    2.2548    1.3905   -0.1718 H   0  0  0  0  0  0  0  0  0  0  0  0
    2.3413    0.4677    1.4195 H   0  0  0  0  0  0  0  0  0  0  0  0
  1  2  1  0
  2  3  1  0
  3  4  1  0
  4  5  1  0
  5  6  1  0
  6  7  1  0
  5  2  1  0
  7  5  1  0
  1  8  1  0
  2  9  1  0
  3 10  1  0
  3 11  1  0
  4 12  1  0
  4 13  1  0
  6 14  1  0
  6 15  1  0
M  END
