
     RDKit          3D

 17 19  0  0  0  0  0  0  0  0999 V2000
    2.3235   -0.0380   -0.5465 O   0  0  0  0  0  0  0  0  0  0  0  0
    1.0233   -0.4245   -0.7343 C   0  0  0  0  0  0  0  0  0  0  0  0
    0.0612    0.7627   -0.5475 C   0  0  0  0  0  0  0  0  0  0  0  0
    0.6116    1.3012    0.7536 C   0  0  0  0  0  0  0  0  0  0  0  0
    0.7574    0.0751    1.4549 O   0  0  0  0  0  0  0  0  0  0  0  0
    0.3068   -0.8753    0.5546 C   0  0  0  0  0  0  0  0  0  0  0  0
   -0.8964   -0.2429   -0.0362 C   0  0  0  0  0  0  0  0  0  0  0  0
   -2.1476   -0.5960   -0.3028 C   0  0  0  0  0  0  0  0  0  0  0  0
   -1.9156    0.2733    0.8226 O   0  0  0  0  0  0  0  0  0  0  0  0
    2.8912   -0.6652   -0.0609 H   0  0  0  0  0  0  0  0  0  0  0  0
    0.7824   -1.0840   -1.5608 H   0  0  0  0  0  0  0  0  0  0  0  0
   -0.1252    1.3913   -1.3630 H   0  0  0  0  0  0  0  0  0  0  0  0
    1.5589    1.8230    0.6565 H   0  0  0  0  0  0  0  0  0  0  0  0
   -0.2008    1.9018    1.2264 H   0  0  0  0  0  0  0  0  0  0  0  0
    0.3460   -1.9026    0.7944 H   0  0  0  0  0  0  0  0  0  0  0  0
   -2.7626   -0.1403   -1.1339 H   0  0  0  0  0  0  0  0  0  0  0  0
   -2.6140   -1.5595    0.0230 H   0  0  0  0  0  0  0  0  0  0  0  0
  1  2  1  0
  2  3  1  0
  3  4  1  0
  4  5  1  0
  5  6  1  0
  6  7  1  0
  7  8  1  0
  8  9  1  0
  6  2  1  0
  9  7  1  0
  7  3  1  0
  1 10  1  0
  2 11  1  0
  3 12  1  0
  4 13  1  0
  4 14  1  0
  6 15  1  0
  8 16  1  0
  8 17  1  0
M  END
