
     RDKit          3D

 19 20  0  0  0  0  0  0  0  0999 V2000
   -2.5243   -0.7961    0.2233 O   0  0  0  0  0  0  0  0  0  0  0  0
   -1.3259   -0.3155   -0.3293 C   0  0  0  0  0  0  0  0  0  0  0  0
   -1.3152    1.1681   -0.1468 C   0  0  0  0  0  0  0  0  0  0  0  0
   -0.4377    1.5850    0.8683 O   0  0  0  0  0  0  0  0  0  0  0  0
    0.8472    1.2850    0.3582 C   0  0  0  0  0  0  0  0  0  0  0  0
    1.0377   -0.1928    0.5247 C   0  0  0  0  0  0  0  0  0  0  0  0
    1.8242   -0.8868   -0.5495 C   0  0  0  0  0  0  0  0  0  0  0  0
    0.6661   -1.5826   -0.8908 O   0  0  0  0  0  0  0  0  0  0  0  0
   -0.1209   -1.0240    0.1414 C   0  0  0  0  0  0  0  0  0  0  0  0
   -2.3937   -1.3473    1.0118 H   0  0  0  0  0  0  0  0  0  0  0  0
   -1.4288   -0.5039   -1.4377 H   0  0  0  0  0  0  0  0  0  0  0  0
   -0.9399    1.6676   -1.0773 H   0  0  0  0  0  0  0  0  0  0  0  0
   -2.3125    1.5947    0.1089 H   0  0  0  0  0  0  0  0  0  0  0  0
    0.8774    1.6099   -0.6994 H   0  0  0  0  0  0  0  0  0  0  0  0
    1.5696    1.8672    0.9225 H   0  0  0  0  0  0  0  0  0  0  0  0
    1.4449   -0.4079    1.5486 H   0  0  0  0  0  0  0  0  0  0  0  0
    2.5638   -1.6221   -0.1390 H   0  0  0  0  0  0  0  0  0  0  0  0
    2.2602   -0.2561   -1.3344 H   0  0  0  0  0  0  0  0  0  0  0  0
   -0.2924   -1.8421    0.8965 H   0  0  0  0  0  0  0  0  0  0  0  0
  1  2  1  0
  2  3  1  0
  3  4  1  0
  4  5  1  0
  5  6  1  0
  6  7  1  0
  7  8  1  0
  8  9  1  0
  9  2  1  0
  9  6  1  0
  1 10  1  0
  2 11  1  0
  3 12  1  0
  3 13  1  0
  5 14  1  0
  5 15  1  0
  6 16  1  0
  7 17  1  0
  7 18  1  0
  9 19  1  0
M  END
