
     RDKit          3D

 21 23  0  0  0  0  0  0  0  0999 V2000
   -2.7135    1.2343    0.8833 O   0  0  0  0  0  0  0  0  0  0  0  0
   -2.2707   -0.0641    0.8105 C   0  0  0  0  0  0  0  0  0  0  0  0
   -1.6322   -0.5877   -0.4463 C   0  0  0  0  0  0  0  0  0  0  0  0
   -0.7893    0.3624   -1.2671 C   0  0  0  0  0  0  0  0  0  0  0  0
    0.0491    0.5878   -0.0043 C   0  0  0  0  0  0  0  0  0  0  0  0
    1.4647    0.2043   -0.2781 C   0  0  0  0  0  0  0  0  0  0  0  0
    2.5180    0.3133    0.7615 C   0  0  0  0  0  0  0  0  0  0  0  0
    2.0369   -1.0291    0.3049 C   0  0  0  0  0  0  0  0  0  0  0  0
   -0.8185   -0.3552    0.7450 C   0  0  0  0  0  0  0  0  0  0  0  0
   -2.6890    1.6316   -0.0433 H   0  0  0  0  0  0  0  0  0  0  0  0
   -2.9483   -0.8058    1.2928 H   0  0  0  0  0  0  0  0  0  0  0  0
   -1.8804   -1.5716   -0.8495 H   0  0  0  0  0  0  0  0  0  0  0  0
   -0.2739   -0.1785   -2.0690 H   0  0  0  0  0  0  0  0  0  0  0  0
   -1.2846    1.2902   -1.5801 H   0  0  0  0  0  0  0  0  0  0  0  0
    0.0136    1.6567    0.3515 H   0  0  0  0  0  0  0  0  0  0  0  0
    1.8104    0.5125   -1.3061 H   0  0  0  0  0  0  0  0  0  0  0  0
    3.5344    0.6179    0.4967 H   0  0  0  0  0  0  0  0  0  0  0  0
    2.1641    0.6211    1.7701 H   0  0  0  0  0  0  0  0  0  0  0  0
    1.4622   -1.6914    0.9786 H   0  0  0  0  0  0  0  0  0  0  0  0
    2.6849   -1.6266   -0.3947 H   0  0  0  0  0  0  0  0  0  0  0  0
   -0.4379   -1.1222    1.4195 H   0  0  0  0  0  0  0  0  0  0  0  0
  1  2  1  0
  2  3  1  0
  3  4  1  0
  4  5  1  0
  5  6  1  0
  6  7  1  0
  7  8  1  0
  5  9  1  0
  9  2  1  0
  9  3  1  0
  8  6  1  0
  1 10  1  0
  2 11  1  0
  3 12  1  0
  4 13  1  0
  4 14  1  0
  5 15  1  0
  6 16  1  0
  7 17  1  0
  7 18  1  0
  8 19  1  0
  8 20  1  0
  9 21  1  0
M  END
