
     RDKit          3D

 13 14  0  0  0  0  0  0  0  0999 V2000
    2.0004   -0.6710    0.3237 O   0  0  0  0  0  0  0  0  0  0  0  0
    0.7045   -0.5196   -0.0797 C   0  0  0  0  0  0  0  0  0  0  0  0
    0.4009    0.9141   -0.4894 C   0  0  0  0  0  0  0  0  0  0  0  0
   -0.9020    1.0659   -0.3825 C   0  0  0  0  0  0  0  0  0  0  0  0
   -1.4642   -0.1865    0.0688 C   0  0  0  0  0  0  0  0  0  0  0  0
   -1.5398   -0.8557    1.1757 O   0  0  0  0  0  0  0  0  0  0  0  0
   -0.2950   -0.5222    1.0519 C   0  0  0  0  0  0  0  0  0  0  0  0
    2.5808   -1.0542   -0.3574 H   0  0  0  0  0  0  0  0  0  0  0  0
    0.3567   -1.2016   -0.8527 H   0  0  0  0  0  0  0  0  0  0  0  0
    1.1231    1.6285   -0.7970 H   0  0  0  0  0  0  0  0  0  0  0  0
   -1.4039    1.9844   -0.6057 H   0  0  0  0  0  0  0  0  0  0  0  0
   -1.5473   -0.8969   -0.8246 H   0  0  0  0  0  0  0  0  0  0  0  0
   -0.0141    0.3147    1.7688 H   0  0  0  0  0  0  0  0  0  0  0  0
  1  2  1  0
  2  3  1  0
  3  4  2  0
  4  5  1  0
  5  6  1  0
  6  7  1  0
  7  2  1  0
  7  5  1  0
  1  8  1  0
  2  9  1  0
  3 10  1  0
  4 11  1  0
  5 12  1  0
  7 13  1  0
M  END
