
     RDKit          3D

 21 22  0  0  0  0  0  0  0  0999 V2000
    1.6428   -0.9581    1.4293 O   0  0  0  0  0  0  0  0  0  0  0  0
    1.2801   -0.6001    0.1231 C   0  0  0  0  0  0  0  0  0  0  0  0
    0.2064   -1.5152   -0.3634 C   0  0  0  0  0  0  0  0  0  0  0  0
   -1.0698   -1.2195    0.3278 C   0  0  0  0  0  0  0  0  0  0  0  0
   -1.5118    0.1893    0.3141 C   0  0  0  0  0  0  0  0  0  0  0  0
   -0.4713    1.2141    0.1207 C   0  0  0  0  0  0  0  0  0  0  0  0
   -0.7817    2.4726    0.6891 O   0  0  0  0  0  0  0  0  0  0  0  0
    0.2357    1.2894   -1.1865 C   0  0  0  0  0  0  0  0  0  0  0  0
    0.9139    0.8405    0.0989 C   0  0  0  0  0  0  0  0  0  0  0  0
    2.3735   -1.6128    1.3994 H   0  0  0  0  0  0  0  0  0  0  0  0
    2.1572   -0.7317   -0.5774 H   0  0  0  0  0  0  0  0  0  0  0  0
    0.1328   -1.5578   -1.4770 H   0  0  0  0  0  0  0  0  0  0  0  0
    0.5150   -2.5626   -0.0683 H   0  0  0  0  0  0  0  0  0  0  0  0
   -0.9836   -1.6151    1.3825 H   0  0  0  0  0  0  0  0  0  0  0  0
   -1.8745   -1.8459   -0.1403 H   0  0  0  0  0  0  0  0  0  0  0  0
   -2.0203    0.3855    1.3051 H   0  0  0  0  0  0  0  0  0  0  0  0
   -2.3328    0.3807   -0.4390 H   0  0  0  0  0  0  0  0  0  0  0  0
   -0.7157    3.1987    0.0510 H   0  0  0  0  0  0  0  0  0  0  0  0
    0.6346    2.2138   -1.5977 H   0  0  0  0  0  0  0  0  0  0  0  0
    0.0081    0.5211   -1.9635 H   0  0  0  0  0  0  0  0  0  0  0  0
    1.6615    1.5133    0.5722 H   0  0  0  0  0  0  0  0  0  0  0  0
  1  2  1  0
  2  3  1  0
  3  4  1  0
  4  5  1  0
  5  6  1  0
  6  7  1  0
  6  8  1  0
  8  9  1  0
  9  2  1  0
  9  6  1  0
  1 10  1  0
  2 11  1  0
  3 12  1  0
  3 13  1  0
  4 14  1  0
  4 15  1  0
  5 16  1  0
  5 17  1  0
  7 18  1  0
  8 19  1  0
  8 20  1  0
  9 21  1  0
M  END
