
     RDKit          3D

 19 21  0  0  0  0  0  0  0  0999 V2000
    2.2696   -0.2420   -1.6059 O   0  0  0  0  0  0  0  0  0  0  0  0
    1.7134   -0.3121   -0.3446 C   0  0  0  0  0  0  0  0  0  0  0  0
    1.2929    1.0797    0.2389 C   0  0  0  0  0  0  0  0  0  0  0  0
    0.3835   -0.0144   -0.0253 C   0  0  0  0  0  0  0  0  0  0  0  0
   -0.5232   -0.6517    0.9648 C   0  0  0  0  0  0  0  0  0  0  0  0
   -1.4330    0.4853    1.2885 C   0  0  0  0  0  0  0  0  0  0  0  0
   -1.6711    1.0262    0.0655 C   0  0  0  0  0  0  0  0  0  0  0  0
   -0.8355    0.1511   -0.8290 C   0  0  0  0  0  0  0  0  0  0  0  0
   -1.2537   -1.2197   -0.2667 C   0  0  0  0  0  0  0  0  0  0  0  0
    3.0416   -0.8535   -1.7323 H   0  0  0  0  0  0  0  0  0  0  0  0
    2.3354   -0.9389    0.3619 H   0  0  0  0  0  0  0  0  0  0  0  0
    1.5970    1.2778    1.2701 H   0  0  0  0  0  0  0  0  0  0  0  0
    1.3072    1.9229   -0.4790 H   0  0  0  0  0  0  0  0  0  0  0  0
   -0.1993   -1.3129    1.7052 H   0  0  0  0  0  0  0  0  0  0  0  0
   -1.8186    0.8150    2.2429 H   0  0  0  0  0  0  0  0  0  0  0  0
   -2.2954    1.8598   -0.1769 H   0  0  0  0  0  0  0  0  0  0  0  0
   -0.8578    0.2949   -1.8651 H   0  0  0  0  0  0  0  0  0  0  0  0
   -2.3355   -1.3019   -0.1187 H   0  0  0  0  0  0  0  0  0  0  0  0
   -0.7177   -2.0656   -0.6943 H   0  0  0  0  0  0  0  0  0  0  0  0
  1  2  1  0
  2  3  1  0
  3  4  1  0
  4  5  1  0
  5  6  1  0
  6  7  2  0
  7  8  1  0
  8  9  1  0
  4  2  1  0
  9  5  1  0
  8  4  1  0
  1 10  1  0
  2 11  1  0
  3 12  1  0
  3 13  1  0
  5 14  1  0
  6 15  1  0
  7 16  1  0
  8 17  1  0
  9 18  1  0
  9 19  1  0
M  END
