
     RDKit          3D

 19 21  0  0  0  0  0  0  0  0999 V2000
    1.0020   -1.0802    1.4557 O   0  0  0  0  0  0  0  0  0  0  0  0
    0.5756   -0.9082    0.1381 C   0  0  0  0  0  0  0  0  0  0  0  0
    1.3498    0.2087   -0.5219 C   0  0  0  0  0  0  0  0  0  0  0  0
    1.6992   -0.0217   -1.8241 O   0  0  0  0  0  0  0  0  0  0  0  0
    1.4516    1.5038    0.1493 C   0  0  0  0  0  0  0  0  0  0  0  0
    0.1184    1.1429   -0.3634 C   0  0  0  0  0  0  0  0  0  0  0  0
   -0.6353   -0.0494    0.0842 C   0  0  0  0  0  0  0  0  0  0  0  0
   -1.9175   -0.4316   -0.4709 C   0  0  0  0  0  0  0  0  0  0  0  0
   -1.7343   -0.0730    1.0132 C   0  0  0  0  0  0  0  0  0  0  0  0
    0.6991   -1.9381    1.8308 H   0  0  0  0  0  0  0  0  0  0  0  0
    0.4890   -1.8200   -0.4652 H   0  0  0  0  0  0  0  0  0  0  0  0
    2.3146   -0.7676   -1.9242 H   0  0  0  0  0  0  0  0  0  0  0  0
    1.5506    1.5155    1.2577 H   0  0  0  0  0  0  0  0  0  0  0  0
    1.9887    2.3045   -0.4009 H   0  0  0  0  0  0  0  0  0  0  0  0
   -0.2573    1.6360   -1.2695 H   0  0  0  0  0  0  0  0  0  0  0  0
   -2.4563    0.3572   -1.0718 H   0  0  0  0  0  0  0  0  0  0  0  0
   -2.2203   -1.4738   -0.7122 H   0  0  0  0  0  0  0  0  0  0  0  0
   -2.2162    0.8488    1.3859 H   0  0  0  0  0  0  0  0  0  0  0  0
   -1.8012   -0.9537    1.7093 H   0  0  0  0  0  0  0  0  0  0  0  0
  1  2  1  0
  2  3  1  0
  3  4  1  0
  3  5  1  0
  5  6  1  0
  6  7  1  0
  7  8  1  0
  8  9  1  0
  7  2  1  0
  6  3  1  0
  9  7  1  0
  1 10  1  0
  2 11  1  0
  4 12  1  0
  5 13  1  0
  5 14  1  0
  6 15  1  0
  8 16  1  0
  8 17  1  0
  9 18  1  0
  9 19  1  0
M  END
