
     RDKit          3D

 19 21  0  0  0  0  0  0  0  0999 V2000
   -2.7540    0.2482    1.1658 O   0  0  0  0  0  0  0  0  0  0  0  0
   -2.0130   -0.3739    0.1297 C   0  0  0  0  0  0  0  0  0  0  0  0
   -1.0232    0.3246   -0.5768 C   0  0  0  0  0  0  0  0  0  0  0  0
    0.1984   -0.0304   -1.3462 C   0  0  0  0  0  0  0  0  0  0  0  0
    1.2516    0.3135   -0.2884 C   0  0  0  0  0  0  0  0  0  0  0  0
    1.5638    1.6534   -0.2276 O   0  0  0  0  0  0  0  0  0  0  0  0
    1.8754   -0.6717    0.5647 C   0  0  0  0  0  0  0  0  0  0  0  0
    0.4887   -0.1685    0.9958 C   0  0  0  0  0  0  0  0  0  0  0  0
   -0.7218   -0.8148    0.4823 C   0  0  0  0  0  0  0  0  0  0  0  0
   -2.2296    1.0560    1.4194 H   0  0  0  0  0  0  0  0  0  0  0  0
   -2.7146   -1.0264   -0.4512 H   0  0  0  0  0  0  0  0  0  0  0  0
   -0.8778    1.3851   -0.1926 H   0  0  0  0  0  0  0  0  0  0  0  0
    0.3400    0.5270   -2.2731 H   0  0  0  0  0  0  0  0  0  0  0  0
    0.2571   -1.1162   -1.5841 H   0  0  0  0  0  0  0  0  0  0  0  0
    1.7741    2.0643   -1.0848 H   0  0  0  0  0  0  0  0  0  0  0  0
    1.9398   -1.7134    0.1934 H   0  0  0  0  0  0  0  0  0  0  0  0
    2.6915   -0.3463    1.2056 H   0  0  0  0  0  0  0  0  0  0  0  0
    0.4176    0.5168    1.8314 H   0  0  0  0  0  0  0  0  0  0  0  0
   -0.4639   -1.8274    0.0366 H   0  0  0  0  0  0  0  0  0  0  0  0
  1  2  1  0
  2  3  1  0
  3  4  1  0
  4  5  1  0
  5  6  1  0
  5  7  1  0
  7  8  1  0
  8  9  1  0
  9  2  1  0
  9  3  1  0
  8  5  1  0
  1 10  1  0
  2 11  1  0
  3 12  1  0
  4 13  1  0
  4 14  1  0
  6 15  1  0
  7 16  1  0
  7 17  1  0
  8 18  1  0
  9 19  1  0
M  END
