
     RDKit          3D

 16 17  0  0  0  0  0  0  0  0999 V2000
    1.5664   -1.4117   -0.2328 O   0  0  0  0  0  0  0  0  0  0  0  0
    1.0657   -0.1760    0.0656 C   0  0  0  0  0  0  0  0  0  0  0  0
   -0.1746   -0.2636    0.9791 C   0  0  0  0  0  0  0  0  0  0  0  0
   -0.6228    1.1424    0.9059 C   0  0  0  0  0  0  0  0  0  0  0  0
   -0.4528    1.4990   -0.3679 C   0  0  0  0  0  0  0  0  0  0  0  0
    0.2223    0.3663   -1.1066 C   0  0  0  0  0  0  0  0  0  0  0  0
   -0.6741   -0.6665   -1.2641 O   0  0  0  0  0  0  0  0  0  0  0  0
   -1.0677   -1.0411    0.0306 C   0  0  0  0  0  0  0  0  0  0  0  0
    2.4758   -1.3371   -0.5592 H   0  0  0  0  0  0  0  0  0  0  0  0
    1.7790    0.5600    0.4285 H   0  0  0  0  0  0  0  0  0  0  0  0
    0.0024   -0.6873    1.9304 H   0  0  0  0  0  0  0  0  0  0  0  0
   -1.0053    1.7609    1.6938 H   0  0  0  0  0  0  0  0  0  0  0  0
   -0.7230    2.4209   -0.8668 H   0  0  0  0  0  0  0  0  0  0  0  0
    0.7912    0.6581   -1.9515 H   0  0  0  0  0  0  0  0  0  0  0  0
   -1.0501   -2.1168    0.1944 H   0  0  0  0  0  0  0  0  0  0  0  0
   -2.1326   -0.7074    0.1206 H   0  0  0  0  0  0  0  0  0  0  0  0
  1  2  1  0
  2  3  1  0
  3  4  1  0
  4  5  2  0
  5  6  1  0
  6  7  1  0
  7  8  1  0
  6  2  1  0
  8  3  1  0
  1  9  1  0
  2 10  1  0
  3 11  1  0
  4 12  1  0
  5 13  1  0
  6 14  1  0
  8 15  1  0
  8 16  1  0
M  END
