
     RDKit          3D

 15 16  0  0  0  0  0  0  0  0999 V2000
   -1.7792   -1.3732   -0.2188 O   0  0  0  0  0  0  0  0  0  0  0  0
   -0.9144   -0.4739    0.3814 C   0  0  0  0  0  0  0  0  0  0  0  0
   -1.2111    0.9754   -0.0311 C   0  0  0  0  0  0  0  0  0  0  0  0
   -0.4542    0.6968   -1.1961 O   0  0  0  0  0  0  0  0  0  0  0  0
    0.2551   -0.1593   -0.4391 C   0  0  0  0  0  0  0  0  0  0  0  0
    1.4939   -0.7922   -0.6247 C   0  0  0  0  0  0  0  0  0  0  0  0
    1.5150    0.4317    0.2004 C   0  0  0  0  0  0  0  0  0  0  0  0
   -2.3675   -0.8831   -0.8592 H   0  0  0  0  0  0  0  0  0  0  0  0
   -0.6929   -0.6149    1.4362 H   0  0  0  0  0  0  0  0  0  0  0  0
   -2.2474    1.1869   -0.2621 H   0  0  0  0  0  0  0  0  0  0  0  0
   -0.6616    1.6694    0.6247 H   0  0  0  0  0  0  0  0  0  0  0  0
    2.0121   -0.7278   -1.6252 H   0  0  0  0  0  0  0  0  0  0  0  0
    1.7112   -1.7710   -0.1381 H   0  0  0  0  0  0  0  0  0  0  0  0
    1.8700    1.4119   -0.2086 H   0  0  0  0  0  0  0  0  0  0  0  0
    1.4711    0.4233    1.2939 H   0  0  0  0  0  0  0  0  0  0  0  0
  1  2  1  0
  2  3  1  0
  3  4  1  0
  4  5  1  0
  5  6  1  0
  6  7  1  0
  5  2  1  0
  7  5  1  0
  1  8  1  0
  2  9  1  0
  3 10  1  0
  3 11  1  0
  6 12  1  0
  6 13  1  0
  7 14  1  0
  7 15  1  0
M  END
