
     RDKit          3D

 10 10  0  0  0  0  0  0  0  0999 V2000
    1.7822   -0.0263   -0.0329 O   0  0  0  0  0  0  0  0  0  0  0  0
    0.5279   -0.1102    0.5421 C   0  0  0  0  0  0  0  0  0  0  0  0
   -0.6281   -0.7047   -0.1350 C   0  0  0  0  0  0  0  0  0  0  0  0
   -0.5091    0.8246   -0.0463 C   0  0  0  0  0  0  0  0  0  0  0  0
    1.8073   -0.2232   -0.9908 H   0  0  0  0  0  0  0  0  0  0  0  0
    0.5581   -0.1611    1.6534 H   0  0  0  0  0  0  0  0  0  0  0  0
   -1.4117   -1.1719    0.5052 H   0  0  0  0  0  0  0  0  0  0  0  0
   -0.6135   -1.1000   -1.1576 H   0  0  0  0  0  0  0  0  0  0  0  0
   -0.2804    1.3586   -0.9775 H   0  0  0  0  0  0  0  0  0  0  0  0
   -1.2327    1.3141    0.6393 H   0  0  0  0  0  0  0  0  0  0  0  0
  1  2  1  0
  2  3  1  0
  3  4  1  0
  4  2  1  0
  1  5  1  0
  2  6  1  0
  3  7  1  0
  3  8  1  0
  4  9  1  0
  4 10  1  0
M  END
