
     RDKit          3D

 19 20  0  0  0  0  0  0  0  0999 V2000
   -1.7443   -1.1352    0.9672 O   0  0  0  0  0  0  0  0  0  0  0  0
   -1.3299   -0.7638   -0.3172 C   0  0  0  0  0  0  0  0  0  0  0  0
   -1.6570    0.7250   -0.5028 C   0  0  0  0  0  0  0  0  0  0  0  0
   -0.7227    1.3774    0.4578 C   0  0  0  0  0  0  0  0  0  0  0  0
    0.4651    0.5028    0.5038 C   0  0  0  0  0  0  0  0  0  0  0  0
    1.6119    0.9817   -0.1246 O   0  0  0  0  0  0  0  0  0  0  0  0
    2.3446   -0.2315   -0.1707 C   0  0  0  0  0  0  0  0  0  0  0  0
    1.3037   -1.1345   -0.7804 C   0  0  0  0  0  0  0  0  0  0  0  0
    0.1388   -0.6942   -0.3665 C   0  0  0  0  0  0  0  0  0  0  0  0
   -1.0010   -1.4512    1.5219 H   0  0  0  0  0  0  0  0  0  0  0  0
   -1.7720   -1.3806   -1.1093 H   0  0  0  0  0  0  0  0  0  0  0  0
   -2.7209    0.9342   -0.3357 H   0  0  0  0  0  0  0  0  0  0  0  0
   -1.3155    1.0099   -1.5394 H   0  0  0  0  0  0  0  0  0  0  0  0
   -1.2141    1.3458    1.4693 H   0  0  0  0  0  0  0  0  0  0  0  0
   -0.4359    2.4096    0.1859 H   0  0  0  0  0  0  0  0  0  0  0  0
    0.7595    0.1486    1.5062 H   0  0  0  0  0  0  0  0  0  0  0  0
    3.2351   -0.1434   -0.8002 H   0  0  0  0  0  0  0  0  0  0  0  0
    2.5308   -0.5177    0.8713 H   0  0  0  0  0  0  0  0  0  0  0  0
    1.5237   -1.9827   -1.4367 H   0  0  0  0  0  0  0  0  0  0  0  0
  1  2  1  0
  2  3  1  0
  3  4  1  0
  4  5  1  0
  5  6  1  0
  6  7  1  0
  7  8  1  0
  8  9  2  0
  9  2  1  0
  9  5  1  0
  1 10  1  0
  2 11  1  0
  3 12  1  0
  3 13  1  0
  4 14  1  0
  4 15  1  0
  5 16  1  0
  7 17  1  0
  7 18  1  0
  8 19  1  0
M  END
