
     RDKit          3D

 17 19  0  0  0  0  0  0  0  0999 V2000
   -2.4630   -0.0927   -0.2310 O   0  0  0  0  0  0  0  0  0  0  0  0
   -1.4843    0.4675    0.5327 C   0  0  0  0  0  0  0  0  0  0  0  0
   -0.6660    1.4401   -0.2845 C   0  0  0  0  0  0  0  0  0  0  0  0
    0.5133    0.9170   -0.4734 C   0  0  0  0  0  0  0  0  0  0  0  0
    1.8749    0.5813   -0.8184 C   0  0  0  0  0  0  0  0  0  0  0  0
    2.1564   -0.5049   -0.0547 C   0  0  0  0  0  0  0  0  0  0  0  0
    0.9477   -0.8773    0.7704 C   0  0  0  0  0  0  0  0  0  0  0  0
    0.0396   -0.6562   -0.4270 C   0  0  0  0  0  0  0  0  0  0  0  0
   -0.4109   -0.5657    0.9239 C   0  0  0  0  0  0  0  0  0  0  0  0
   -3.3307    0.3452   -0.1665 H   0  0  0  0  0  0  0  0  0  0  0  0
   -1.8518    0.9523    1.4298 H   0  0  0  0  0  0  0  0  0  0  0  0
   -0.8955    2.4044   -0.6900 H   0  0  0  0  0  0  0  0  0  0  0  0
    2.4283    1.1570   -1.5219 H   0  0  0  0  0  0  0  0  0  0  0  0
    3.1033   -0.9848   -0.0664 H   0  0  0  0  0  0  0  0  0  0  0  0
    1.0945   -2.0490    0.8969 H   0  0  0  0  0  0  0  0  0  0  0  0
   -0.0337   -1.1598   -1.2919 H   0  0  0  0  0  0  0  0  0  0  0  0
   -1.0222   -1.3743    1.4721 H   0  0  0  0  0  0  0  0  0  0  0  0
  1  2  1  0
  2  3  1  0
  3  4  2  0
  4  5  1  0
  5  6  2  0
  6  7  1  0
  7  8  1  0
  8  9  1  0
  9  2  1  0
  8  4  1  0
  9  7  1  0
  1 10  1  0
  2 11  1  0
  3 12  1  0
  5 13  1  0
  6 14  1  0
  7 15  1  0
  8 16  1  0
  9 17  1  0
M  END
