
     RDKit          3D

 19 21  0  0  0  0  0  0  0  0999 V2000
   -0.5590    1.7942   -0.6523 O   0  0  0  0  0  0  0  0  0  0  0  0
   -1.1624    0.6545   -0.1929 C   0  0  0  0  0  0  0  0  0  0  0  0
   -0.5745   -0.5641   -0.9070 C   0  0  0  0  0  0  0  0  0  0  0  0
    0.8968   -0.4368   -1.1104 C   0  0  0  0  0  0  0  0  0  0  0  0
    1.6186    0.1581    0.0551 C   0  0  0  0  0  0  0  0  0  0  0  0
    1.2843    1.4654    0.4445 O   0  0  0  0  0  0  0  0  0  0  0  0
    0.8790    0.2933    1.2251 C   0  0  0  0  0  0  0  0  0  0  0  0
   -0.5888    0.0542    1.0749 C   0  0  0  0  0  0  0  0  0  0  0  0
   -0.8013   -1.3135    0.4028 C   0  0  0  0  0  0  0  0  0  0  0  0
   -1.0081    2.6309   -0.4474 H   0  0  0  0  0  0  0  0  0  0  0  0
   -2.2506    0.6489   -0.1741 H   0  0  0  0  0  0  0  0  0  0  0  0
   -1.1169   -0.9210   -1.7656 H   0  0  0  0  0  0  0  0  0  0  0  0
    1.3039   -1.4721   -1.2543 H   0  0  0  0  0  0  0  0  0  0  0  0
    1.1336    0.1327   -2.0421 H   0  0  0  0  0  0  0  0  0  0  0  0
    2.7303    0.0233    0.0083 H   0  0  0  0  0  0  0  0  0  0  0  0
    1.2412    0.3841    2.2596 H   0  0  0  0  0  0  0  0  0  0  0  0
   -1.1614    0.2057    1.9878 H   0  0  0  0  0  0  0  0  0  0  0  0
   -1.8328   -1.6838    0.4593 H   0  0  0  0  0  0  0  0  0  0  0  0
   -0.0320   -2.0540    0.6287 H   0  0  0  0  0  0  0  0  0  0  0  0
  1  2  1  0
  2  3  1  0
  3  4  1  0
  4  5  1  0
  5  6  1  0
  6  7  1  0
  7  8  1  0
  8  9  1  0
  8  2  1  0
  9  3  1  0
  7  5  1  0
  1 10  1  0
  2 11  1  0
  3 12  1  0
  4 13  1  0
  4 14  1  0
  5 15  1  0
  7 16  1  0
  8 17  1  0
  9 18  1  0
  9 19  1  0
M  END
