
     RDKit          3D

 16 17  0  0  0  0  0  0  0  0999 V2000
    1.8528   -0.3414    1.0460 O   0  0  0  0  0  0  0  0  0  0  0  0
    1.1541   -0.6085   -0.1565 C   0  0  0  0  0  0  0  0  0  0  0  0
    0.0834   -1.5403    0.2067 C   0  0  0  0  0  0  0  0  0  0  0  0
   -1.0817   -0.9541    0.1614 C   0  0  0  0  0  0  0  0  0  0  0  0
   -0.9632    0.4450   -0.2364 C   0  0  0  0  0  0  0  0  0  0  0  0
   -1.9482    0.8650   -1.1297 O   0  0  0  0  0  0  0  0  0  0  0  0
   -0.1374    1.4523    0.4623 C   0  0  0  0  0  0  0  0  0  0  0  0
    0.4779    0.6283   -0.6103 C   0  0  0  0  0  0  0  0  0  0  0  0
    2.8042   -0.2978    0.8170 H   0  0  0  0  0  0  0  0  0  0  0  0
    1.8631   -1.0338   -0.9082 H   0  0  0  0  0  0  0  0  0  0  0  0
    0.2514   -2.6302    0.4897 H   0  0  0  0  0  0  0  0  0  0  0  0
   -2.0445   -1.4514    0.3949 H   0  0  0  0  0  0  0  0  0  0  0  0
   -2.8230    0.6506   -0.6746 H   0  0  0  0  0  0  0  0  0  0  0  0
   -0.3344    2.5009    0.2028 H   0  0  0  0  0  0  0  0  0  0  0  0
    0.1087    1.2227    1.5241 H   0  0  0  0  0  0  0  0  0  0  0  0
    0.7369    1.0928   -1.5893 H   0  0  0  0  0  0  0  0  0  0  0  0
  1  2  1  0
  2  3  1  0
  3  4  2  0
  4  5  1  0
  5  6  1  0
  5  7  1  0
  7  8  1  0
  8  2  1  0
  8  5  1  0
  1  9  1  0
  2 10  1  0
  3 11  1  0
  4 12  1  0
  6 13  1  0
  7 14  1  0
  7 15  1  0
  8 16  1  0
M  END
