
     RDKit          3D

 19 20  0  0  0  0  0  0  0  0999 V2000
   -2.3745    1.6502   -0.7291 O   0  0  0  0  0  0  0  0  0  0  0  0
   -1.3442    0.7119   -0.8712 C   0  0  0  0  0  0  0  0  0  0  0  0
   -1.7141   -0.6966   -0.7216 C   0  0  0  0  0  0  0  0  0  0  0  0
   -2.9492   -1.1075   -0.2435 O   0  0  0  0  0  0  0  0  0  0  0  0
   -0.8715    0.0117    0.3373 C   0  0  0  0  0  0  0  0  0  0  0  0
    0.5037   -0.5375    0.4809 C   0  0  0  0  0  0  0  0  0  0  0  0
    1.5948    0.4784    0.3691 C   0  0  0  0  0  0  0  0  0  0  0  0
    2.9922   -0.0957    0.5174 C   0  0  0  0  0  0  0  0  0  0  0  0
    2.4126    0.7082    1.4936 O   0  0  0  0  0  0  0  0  0  0  0  0
   -2.0380    2.5549   -0.9625 H   0  0  0  0  0  0  0  0  0  0  0  0
   -0.6274    0.9468   -1.6961 H   0  0  0  0  0  0  0  0  0  0  0  0
   -1.2232   -1.4465   -1.3685 H   0  0  0  0  0  0  0  0  0  0  0  0
   -2.7583   -1.6237    0.6033 H   0  0  0  0  0  0  0  0  0  0  0  0
   -1.3594    0.3114    1.2870 H   0  0  0  0  0  0  0  0  0  0  0  0
    0.5924   -1.0213    1.4783 H   0  0  0  0  0  0  0  0  0  0  0  0
    0.7352   -1.3505   -0.2573 H   0  0  0  0  0  0  0  0  0  0  0  0
    1.5024    1.3151   -0.3640 H   0  0  0  0  0  0  0  0  0  0  0  0
    3.1097   -1.1713    0.7118 H   0  0  0  0  0  0  0  0  0  0  0  0
    3.8167    0.3621   -0.0650 H   0  0  0  0  0  0  0  0  0  0  0  0
  1  2  1  0
  2  3  1  0
  3  4  1  0
  3  5  1  0
  5  6  1  0
  6  7  1  0
  7  8  1  0
  8  9  1  0
  5  2  1  0
  9  7  1  0
  1 10  1  0
  2 11  1  0
  3 12  1  0
  4 13  1  0
  5 14  1  0
  6 15  1  0
  6 16  1  0
  7 17  1  0
  8 18  1  0
  8 19  1  0
M  END
