
     RDKit          3D

 19 21  0  0  0  0  0  0  0  0999 V2000
   -0.8414    1.7785    0.9612 O   0  0  0  0  0  0  0  0  0  0  0  0
   -1.0904    0.9582   -0.1338 C   0  0  0  0  0  0  0  0  0  0  0  0
   -1.4157   -0.4130    0.3488 C   0  0  0  0  0  0  0  0  0  0  0  0
   -0.2988   -1.3317   -0.0036 C   0  0  0  0  0  0  0  0  0  0  0  0
    1.1202   -1.0033    0.1258 C   0  0  0  0  0  0  0  0  0  0  0  0
    1.6218    0.3217    0.6063 C   0  0  0  0  0  0  0  0  0  0  0  0
    1.2153    1.2892   -0.2939 O   0  0  0  0  0  0  0  0  0  0  0  0
    0.1483    0.8065   -1.0051 C   0  0  0  0  0  0  0  0  0  0  0  0
    0.3960   -0.6758   -1.1195 C   0  0  0  0  0  0  0  0  0  0  0  0
   -0.9241    1.2761    1.8152 H   0  0  0  0  0  0  0  0  0  0  0  0
   -1.8941    1.4365   -0.7203 H   0  0  0  0  0  0  0  0  0  0  0  0
   -1.7103   -0.4689    1.4143 H   0  0  0  0  0  0  0  0  0  0  0  0
   -2.3267   -0.7565   -0.2225 H   0  0  0  0  0  0  0  0  0  0  0  0
   -0.5713   -2.3811   -0.1317 H   0  0  0  0  0  0  0  0  0  0  0  0
    1.8343   -1.8451    0.1961 H   0  0  0  0  0  0  0  0  0  0  0  0
    1.3614    0.5499    1.6565 H   0  0  0  0  0  0  0  0  0  0  0  0
    2.7426    0.3127    0.5719 H   0  0  0  0  0  0  0  0  0  0  0  0
    0.0386    1.2878   -1.9868 H   0  0  0  0  0  0  0  0  0  0  0  0
    0.5946   -1.1417   -2.0787 H   0  0  0  0  0  0  0  0  0  0  0  0
  1  2  1  0
  2  3  1  0
  3  4  1  0
  4  5  1  0
  5  6  1  0
  6  7  1  0
  7  8  1  0
  8  9  1  0
  8  2  1  0
  9  4  1  0
  9  5  1  0
  1 10  1  0
  2 11  1  0
  3 12  1  0
  3 13  1  0
  4 14  1  0
  5 15  1  0
  6 16  1  0
  6 17  1  0
  8 18  1  0
  9 19  1  0
M  END
