
     RDKit          3D

 19 20  0  0  0  0  0  0  0  0999 V2000
    1.9521    1.2979   -0.1176 O   0  0  0  0  0  0  0  0  0  0  0  0
    0.9524    0.4960   -0.6213 C   0  0  0  0  0  0  0  0  0  0  0  0
    1.2061   -0.9612   -0.2342 C   0  0  0  0  0  0  0  0  0  0  0  0
   -0.1552   -1.5036    0.2121 C   0  0  0  0  0  0  0  0  0  0  0  0
   -0.4431   -0.8979    1.4217 O   0  0  0  0  0  0  0  0  0  0  0  0
   -0.6089    0.4716    1.3343 C   0  0  0  0  0  0  0  0  0  0  0  0
   -0.4183    0.8831   -0.1273 C   0  0  0  0  0  0  0  0  0  0  0  0
   -1.4389    0.0592   -0.9104 C   0  0  0  0  0  0  0  0  0  0  0  0
   -1.1096   -1.2675   -0.7645 O   0  0  0  0  0  0  0  0  0  0  0  0
    1.7705    1.6855    0.7631 H   0  0  0  0  0  0  0  0  0  0  0  0
    0.9442    0.5490   -1.7327 H   0  0  0  0  0  0  0  0  0  0  0  0
    1.9033   -1.0343    0.6140 H   0  0  0  0  0  0  0  0  0  0  0  0
    1.6311   -1.5442   -1.0611 H   0  0  0  0  0  0  0  0  0  0  0  0
   -0.0958   -2.5836    0.3690 H   0  0  0  0  0  0  0  0  0  0  0  0
    0.0437    1.0544    1.9878 H   0  0  0  0  0  0  0  0  0  0  0  0
   -1.6851    0.6914    1.5653 H   0  0  0  0  0  0  0  0  0  0  0  0
   -0.5427    1.9592   -0.2781 H   0  0  0  0  0  0  0  0  0  0  0  0
   -2.4321    0.3176   -0.4510 H   0  0  0  0  0  0  0  0  0  0  0  0
   -1.4736    0.3275   -1.9689 H   0  0  0  0  0  0  0  0  0  0  0  0
  1  2  1  0
  2  3  1  0
  3  4  1  0
  4  5  1  0
  5  6  1  0
  6  7  1  0
  7  8  1  0
  8  9  1  0
  7  2  1  0
  9  4  1  0
  1 10  1  0
  2 11  1  0
  3 12  1  0
  3 13  1  0
  4 14  1  0
  6 15  1  0
  6 16  1  0
  7 17  1  0
  8 18  1  0
  8 19  1  0
M  END
