
     RDKit          3D

 18 18  0  0  0  0  0  0  0  0999 V2000
   -2.4227    0.4934   -0.2955 O   0  0  0  0  0  0  0  0  0  0  0  0
   -1.1061    0.1645   -0.7000 C   0  0  0  0  0  0  0  0  0  0  0  0
   -0.8385   -1.2646   -0.3254 C   0  0  0  0  0  0  0  0  0  0  0  0
   -0.2846   -1.3501    0.9580 O   0  0  0  0  0  0  0  0  0  0  0  0
    1.0220   -0.8545    0.8129 C   0  0  0  0  0  0  0  0  0  0  0  0
    0.9872    0.6292    0.6298 C   0  0  0  0  0  0  0  0  0  0  0  0
    2.2191    0.9867    0.0302 O   0  0  0  0  0  0  0  0  0  0  0  0
   -0.1260    1.1425   -0.1934 C   0  0  0  0  0  0  0  0  0  0  0  0
   -2.4574    0.7214    0.6630 H   0  0  0  0  0  0  0  0  0  0  0  0
   -1.1709    0.1644   -1.8294 H   0  0  0  0  0  0  0  0  0  0  0  0
   -0.0606   -1.7190   -1.0066 H   0  0  0  0  0  0  0  0  0  0  0  0
   -1.7366   -1.8778   -0.4409 H   0  0  0  0  0  0  0  0  0  0  0  0
    1.4297   -1.2899   -0.1419 H   0  0  0  0  0  0  0  0  0  0  0  0
    1.6204   -1.1684    1.6609 H   0  0  0  0  0  0  0  0  0  0  0  0
    1.0293    1.1224    1.6449 H   0  0  0  0  0  0  0  0  0  0  0  0
    2.3066    0.4460   -0.7996 H   0  0  0  0  0  0  0  0  0  0  0  0
   -0.6773    1.9243    0.4097 H   0  0  0  0  0  0  0  0  0  0  0  0
    0.2664    1.7294   -1.0768 H   0  0  0  0  0  0  0  0  0  0  0  0
  1  2  1  0
  2  3  1  0
  3  4  1  0
  4  5  1  0
  5  6  1  0
  6  7  1  0
  6  8  1  0
  8  2  1  0
  1  9  1  0
  2 10  1  0
  3 11  1  0
  3 12  1  0
  5 13  1  0
  5 14  1  0
  6 15  1  0
  7 16  1  0
  8 17  1  0
  8 18  1  0
M  END
