
     RDKit          3D

 19 20  0  0  0  0  0  0  0  0999 V2000
    2.1971   -0.8092   -0.2994 O   0  0  0  0  0  0  0  0  0  0  0  0
    1.1567   -0.2422    0.3928 C   0  0  0  0  0  0  0  0  0  0  0  0
    0.6099    1.0051   -0.2030 C   0  0  0  0  0  0  0  0  0  0  0  0
   -0.5956    1.2235    0.7250 C   0  0  0  0  0  0  0  0  0  0  0  0
   -1.1042   -0.0380    0.0094 C   0  0  0  0  0  0  0  0  0  0  0  0
   -2.4032   -0.2848    0.0154 O   0  0  0  0  0  0  0  0  0  0  0  0
   -0.4511    0.5577   -1.2191 C   0  0  0  0  0  0  0  0  0  0  0  0
   -0.1092   -1.1155    0.3575 C   0  0  0  0  0  0  0  0  0  0  0  0
   -0.0669   -2.0178   -0.6896 O   0  0  0  0  0  0  0  0  0  0  0  0
    3.0276   -0.3879    0.0490 H   0  0  0  0  0  0  0  0  0  0  0  0
    1.3669   -0.0618    1.4657 H   0  0  0  0  0  0  0  0  0  0  0  0
    1.2105    1.8357   -0.4402 H   0  0  0  0  0  0  0  0  0  0  0  0
   -0.3643    1.0764    1.7819 H   0  0  0  0  0  0  0  0  0  0  0  0
   -1.2001    2.0801    0.4305 H   0  0  0  0  0  0  0  0  0  0  0  0
   -2.7571   -0.3103    0.9355 H   0  0  0  0  0  0  0  0  0  0  0  0
   -0.1013   -0.2322   -1.8936 H   0  0  0  0  0  0  0  0  0  0  0  0
   -0.9323    1.4316   -1.6549 H   0  0  0  0  0  0  0  0  0  0  0  0
   -0.2997   -1.5843    1.3255 H   0  0  0  0  0  0  0  0  0  0  0  0
    0.8163   -2.1260   -1.0883 H   0  0  0  0  0  0  0  0  0  0  0  0
  1  2  1  0
  2  3  1  0
  3  4  1  0
  4  5  1  0
  5  6  1  0
  5  7  1  0
  5  8  1  0
  8  9  1  0
  8  2  1  0
  7  3  1  0
  1 10  1  0
  2 11  1  0
  3 12  1  0
  4 13  1  0
  4 14  1  0
  6 15  1  0
  7 16  1  0
  7 17  1  0
  8 18  1  0
  9 19  1  0
M  END
