
     RDKit          3D

 19 21  0  0  0  0  0  0  0  0999 V2000
   -2.3128    1.4589    0.3068 O   0  0  0  0  0  0  0  0  0  0  0  0
   -1.5537    0.4634   -0.2076 C   0  0  0  0  0  0  0  0  0  0  0  0
   -1.4208   -0.7505    0.7893 C   0  0  0  0  0  0  0  0  0  0  0  0
   -0.0448   -1.3783    0.4595 C   0  0  0  0  0  0  0  0  0  0  0  0
    1.2381   -0.7339    0.5119 C   0  0  0  0  0  0  0  0  0  0  0  0
    2.0880    0.1487   -0.4305 C   0  0  0  0  0  0  0  0  0  0  0  0
    1.0855    1.2863   -0.5328 C   0  0  0  0  0  0  0  0  0  0  0  0
   -0.1168    0.8135   -0.3712 C   0  0  0  0  0  0  0  0  0  0  0  0
    0.2501   -0.6982   -0.6703 C   0  0  0  0  0  0  0  0  0  0  0  0
   -1.8052    2.2550    0.6228 H   0  0  0  0  0  0  0  0  0  0  0  0
   -1.9564    0.0707   -1.1442 H   0  0  0  0  0  0  0  0  0  0  0  0
   -1.3296   -0.3388    1.8104 H   0  0  0  0  0  0  0  0  0  0  0  0
   -2.2369   -1.4483    0.6597 H   0  0  0  0  0  0  0  0  0  0  0  0
   -0.1475   -2.5065    0.4554 H   0  0  0  0  0  0  0  0  0  0  0  0
    1.1635   -0.0724    1.3981 H   0  0  0  0  0  0  0  0  0  0  0  0
    2.3137   -0.3164   -1.3778 H   0  0  0  0  0  0  0  0  0  0  0  0
    3.0012    0.4121    0.0705 H   0  0  0  0  0  0  0  0  0  0  0  0
    1.3082    2.3256   -0.7081 H   0  0  0  0  0  0  0  0  0  0  0  0
    0.4763   -0.9908   -1.6417 H   0  0  0  0  0  0  0  0  0  0  0  0
  1  2  1  0
  2  3  1  0
  3  4  1  0
  4  5  1  0
  5  6  1  0
  6  7  1  0
  7  8  2  0
  8  9  1  0
  8  2  1  0
  9  4  1  0
  9  5  1  0
  1 10  1  0
  2 11  1  0
  3 12  1  0
  3 13  1  0
  4 14  1  0
  5 15  1  0
  6 16  1  0
  6 17  1  0
  7 18  1  0
  9 19  1  0
M  END
