
     RDKit          3D

 21 22  0  0  0  0  0  0  0  0999 V2000
    2.3307    0.2172   -1.3967 O   0  0  0  0  0  0  0  0  0  0  0  0
    1.6286    0.1474   -0.2341 C   0  0  0  0  0  0  0  0  0  0  0  0
    0.6576    1.2907   -0.0390 C   0  0  0  0  0  0  0  0  0  0  0  0
   -0.4221    0.7228    0.8762 C   0  0  0  0  0  0  0  0  0  0  0  0
   -1.7138    0.5906    0.0702 C   0  0  0  0  0  0  0  0  0  0  0  0
   -1.5444   -0.6658   -0.7763 C   0  0  0  0  0  0  0  0  0  0  0  0
   -0.2492   -0.8570   -1.1944 O   0  0  0  0  0  0  0  0  0  0  0  0
    0.6624   -1.0458   -0.1894 C   0  0  0  0  0  0  0  0  0  0  0  0
    0.0086   -0.7163    1.1608 C   0  0  0  0  0  0  0  0  0  0  0  0
    2.9801   -0.5002   -1.4348 H   0  0  0  0  0  0  0  0  0  0  0  0
    2.2323    0.0797    0.6874 H   0  0  0  0  0  0  0  0  0  0  0  0
    0.2235    1.4973   -1.0612 H   0  0  0  0  0  0  0  0  0  0  0  0
    1.1580    2.1646    0.3825 H   0  0  0  0  0  0  0  0  0  0  0  0
   -0.5452    1.2968    1.7893 H   0  0  0  0  0  0  0  0  0  0  0  0
   -2.5603    0.5006    0.7808 H   0  0  0  0  0  0  0  0  0  0  0  0
   -1.9000    1.4783   -0.5596 H   0  0  0  0  0  0  0  0  0  0  0  0
   -1.9878   -1.5551   -0.2697 H   0  0  0  0  0  0  0  0  0  0  0  0
   -2.1648   -0.5274   -1.7023 H   0  0  0  0  0  0  0  0  0  0  0  0
    1.1783   -1.9993   -0.1800 H   0  0  0  0  0  0  0  0  0  0  0  0
    0.8483   -0.7474    1.8969 H   0  0  0  0  0  0  0  0  0  0  0  0
   -0.8208   -1.3718    1.3933 H   0  0  0  0  0  0  0  0  0  0  0  0
  1  2  1  0
  2  3  1  0
  3  4  1  0
  4  5  1  0
  5  6  1  0
  6  7  1  0
  7  8  1  0
  8  9  1  0
  8  2  1  0
  9  4  1  0
  1 10  1  0
  2 11  1  0
  3 12  1  0
  3 13  1  0
  4 14  1  0
  5 15  1  0
  5 16  1  0
  6 17  1  0
  6 18  1  0
  8 19  1  0
  9 20  1  0
  9 21  1  0
M  END
