
     RDKit          3D

 18 19  0  0  0  0  0  0  0  0999 V2000
    2.4441    0.6230   -0.3744 O   0  0  0  0  0  0  0  0  0  0  0  0
    1.1708    0.3681    0.0970 C   0  0  0  0  0  0  0  0  0  0  0  0
    1.0153   -0.9482    0.8337 C   0  0  0  0  0  0  0  0  0  0  0  0
   -0.3513   -1.0323    0.1851 C   0  0  0  0  0  0  0  0  0  0  0  0
   -1.3795   -0.0805    0.7440 C   0  0  0  0  0  0  0  0  0  0  0  0
   -1.7014    0.7993   -0.4137 C   0  0  0  0  0  0  0  0  0  0  0  0
   -0.7967    0.7104   -1.3659 C   0  0  0  0  0  0  0  0  0  0  0  0
    0.2253   -0.2332   -0.9527 C   0  0  0  0  0  0  0  0  0  0  0  0
    2.7651    1.4445    0.0944 H   0  0  0  0  0  0  0  0  0  0  0  0
    0.6762    1.1603    0.6538 H   0  0  0  0  0  0  0  0  0  0  0  0
    1.6752   -1.7423    0.4805 H   0  0  0  0  0  0  0  0  0  0  0  0
    0.9894   -0.8135    1.9450 H   0  0  0  0  0  0  0  0  0  0  0  0
   -0.6945   -2.0437   -0.0467 H   0  0  0  0  0  0  0  0  0  0  0  0
   -1.0241    0.5293    1.5811 H   0  0  0  0  0  0  0  0  0  0  0  0
   -2.3167   -0.6316    0.9923 H   0  0  0  0  0  0  0  0  0  0  0  0
   -2.6084    1.4368   -0.4268 H   0  0  0  0  0  0  0  0  0  0  0  0
   -0.8375    1.2641   -2.2935 H   0  0  0  0  0  0  0  0  0  0  0  0
    0.7487   -0.8105   -1.7332 H   0  0  0  0  0  0  0  0  0  0  0  0
  1  2  1  0
  2  3  1  0
  3  4  1  0
  4  5  1  0
  5  6  1  0
  6  7  2  0
  7  8  1  0
  8  2  1  0
  8  4  1  0
  1  9  1  0
  2 10  1  0
  3 11  1  0
  3 12  1  0
  4 13  1  0
  5 14  1  0
  5 15  1  0
  6 16  1  0
  7 17  1  0
  8 18  1  0
M  END
