
     RDKit          3D

 19 20  0  0  0  0  0  0  0  0999 V2000
    1.7159   -1.1714    0.5574 O   0  0  0  0  0  0  0  0  0  0  0  0
    1.4136   -0.1570   -0.3492 C   0  0  0  0  0  0  0  0  0  0  0  0
    1.2256    1.1119    0.4185 C   0  0  0  0  0  0  0  0  0  0  0  0
   -0.0573    1.5543    0.5138 O   0  0  0  0  0  0  0  0  0  0  0  0
   -0.9363    1.1206   -0.4178 C   0  0  0  0  0  0  0  0  0  0  0  0
   -1.7764   -0.0752    0.0450 C   0  0  0  0  0  0  0  0  0  0  0  0
   -0.8254   -1.2154   -0.2331 C   0  0  0  0  0  0  0  0  0  0  0  0
    0.1924   -0.5732   -1.1296 C   0  0  0  0  0  0  0  0  0  0  0  0
   -0.3892    0.6339   -1.5863 O   0  0  0  0  0  0  0  0  0  0  0  0
    1.3387   -0.9216    1.4523 H   0  0  0  0  0  0  0  0  0  0  0  0
    2.2546   -0.1049   -1.0914 H   0  0  0  0  0  0  0  0  0  0  0  0
    1.9309    1.8695   -0.0349 H   0  0  0  0  0  0  0  0  0  0  0  0
    1.6107    1.0044    1.4769 H   0  0  0  0  0  0  0  0  0  0  0  0
   -1.6888    1.9265   -0.6324 H   0  0  0  0  0  0  0  0  0  0  0  0
   -2.0761    0.0105    1.0903 H   0  0  0  0  0  0  0  0  0  0  0  0
   -2.6104   -0.1465   -0.6749 H   0  0  0  0  0  0  0  0  0  0  0  0
   -1.3465   -2.0428   -0.7769 H   0  0  0  0  0  0  0  0  0  0  0  0
   -0.4059   -1.6551    0.6836 H   0  0  0  0  0  0  0  0  0  0  0  0
    0.4299   -1.1686   -2.0298 H   0  0  0  0  0  0  0  0  0  0  0  0
  1  2  1  0
  2  3  1  0
  3  4  1  0
  4  5  1  0
  5  6  1  0
  6  7  1  0
  7  8  1  0
  8  9  1  0
  8  2  1  0
  9  5  1  0
  1 10  1  0
  2 11  1  0
  3 12  1  0
  3 13  1  0
  5 14  1  0
  6 15  1  0
  6 16  1  0
  7 17  1  0
  7 18  1  0
  8 19  1  0
M  END
