
     RDKit          3D

 19 21  0  0  0  0  0  0  0  0999 V2000
    2.1550    0.1082    0.6656 O   0  0  0  0  0  0  0  0  0  0  0  0
    1.1206   -0.4093   -0.0648 C   0  0  0  0  0  0  0  0  0  0  0  0
   -0.0018   -0.9773    0.7559 C   0  0  0  0  0  0  0  0  0  0  0  0
   -0.6052    0.2609    1.3640 C   0  0  0  0  0  0  0  0  0  0  0  0
   -0.7907    1.0844    0.0779 C   0  0  0  0  0  0  0  0  0  0  0  0
   -1.0127    0.1313   -1.0129 C   0  0  0  0  0  0  0  0  0  0  0  0
   -1.0217   -1.2573   -0.3515 C   0  0  0  0  0  0  0  0  0  0  0  0
    0.3293    0.6760   -0.8107 C   0  0  0  0  0  0  0  0  0  0  0  0
    0.9692    1.5364   -1.6409 O   0  0  0  0  0  0  0  0  0  0  0  0
    3.0013   -0.3753    0.4220 H   0  0  0  0  0  0  0  0  0  0  0  0
    1.4681   -1.1994   -0.7487 H   0  0  0  0  0  0  0  0  0  0  0  0
    0.2114   -1.7882    1.3981 H   0  0  0  0  0  0  0  0  0  0  0  0
   -1.5609    0.0822    1.8695 H   0  0  0  0  0  0  0  0  0  0  0  0
    0.1304    0.8125    1.9622 H   0  0  0  0  0  0  0  0  0  0  0  0
   -1.1803    2.0880    0.1358 H   0  0  0  0  0  0  0  0  0  0  0  0
   -1.6390    0.3030   -1.8830 H   0  0  0  0  0  0  0  0  0  0  0  0
   -0.6034   -2.0209   -1.0225 H   0  0  0  0  0  0  0  0  0  0  0  0
   -2.0149   -1.4780    0.0463 H   0  0  0  0  0  0  0  0  0  0  0  0
    1.0451    2.4227   -1.1623 H   0  0  0  0  0  0  0  0  0  0  0  0
  1  2  1  0
  2  3  1  0
  3  4  1  0
  4  5  1  0
  5  6  1  0
  6  7  1  0
  6  8  1  0
  8  9  1  0
  8  2  1  0
  7  3  1  0
  8  5  1  0
  1 10  1  0
  2 11  1  0
  3 12  1  0
  4 13  1  0
  4 14  1  0
  5 15  1  0
  6 16  1  0
  7 17  1  0
  7 18  1  0
  9 19  1  0
M  END
