
     RDKit          3D

 19 20  0  0  0  0  0  0  0  0999 V2000
   -0.4056    2.1131    0.7198 O   0  0  0  0  0  0  0  0  0  0  0  0
   -0.7410    1.0449   -0.0841 C   0  0  0  0  0  0  0  0  0  0  0  0
   -1.8540    0.1990    0.4894 C   0  0  0  0  0  0  0  0  0  0  0  0
   -1.7449   -0.9554   -0.5230 C   0  0  0  0  0  0  0  0  0  0  0  0
   -0.2421   -1.1346   -0.4502 C   0  0  0  0  0  0  0  0  0  0  0  0
    0.3319    0.0298   -0.1947 C   0  0  0  0  0  0  0  0  0  0  0  0
    1.7840    0.3545   -0.0317 C   0  0  0  0  0  0  0  0  0  0  0  0
    2.7801   -0.6879   -0.1515 C   0  0  0  0  0  0  0  0  0  0  0  0
    2.3800   -0.1722    1.2022 O   0  0  0  0  0  0  0  0  0  0  0  0
   -1.2124    2.5703    1.0517 H   0  0  0  0  0  0  0  0  0  0  0  0
   -1.0996    1.3717   -1.0981 H   0  0  0  0  0  0  0  0  0  0  0  0
   -1.5594   -0.2120    1.4788 H   0  0  0  0  0  0  0  0  0  0  0  0
   -2.8290    0.6769    0.4724 H   0  0  0  0  0  0  0  0  0  0  0  0
   -2.0477   -0.5469   -1.4920 H   0  0  0  0  0  0  0  0  0  0  0  0
   -2.2814   -1.8396   -0.1871 H   0  0  0  0  0  0  0  0  0  0  0  0
    0.3180   -2.0518   -0.5800 H   0  0  0  0  0  0  0  0  0  0  0  0
    2.0958    1.3969   -0.1356 H   0  0  0  0  0  0  0  0  0  0  0  0
    2.5003   -1.7540   -0.1609 H   0  0  0  0  0  0  0  0  0  0  0  0
    3.8270   -0.4026   -0.3253 H   0  0  0  0  0  0  0  0  0  0  0  0
  1  2  1  0
  2  3  1  0
  3  4  1  0
  4  5  1  0
  5  6  2  0
  6  7  1  0
  7  8  1  0
  8  9  1  0
  6  2  1  0
  9  7  1  0
  1 10  1  0
  2 11  1  0
  3 12  1  0
  3 13  1  0
  4 14  1  0
  4 15  1  0
  5 16  1  0
  7 17  1  0
  8 18  1  0
  8 19  1  0
M  END
