
     RDKit          3D

 23 24  0  0  0  0  0  0  0  0999 V2000
   -0.0756    2.6626   -0.2957 O   0  0  0  0  0  0  0  0  0  0  0  0
   -0.4018    1.3342   -0.4580 C   0  0  0  0  0  0  0  0  0  0  0  0
   -1.1276    0.8214    0.7826 C   0  0  0  0  0  0  0  0  0  0  0  0
   -0.8514   -0.6709    0.8428 C   0  0  0  0  0  0  0  0  0  0  0  0
   -0.9509   -1.2548   -0.5506 C   0  0  0  0  0  0  0  0  0  0  0  0
    0.2209   -0.8247   -1.3949 C   0  0  0  0  0  0  0  0  0  0  0  0
    0.7771    0.4515   -0.7494 C   0  0  0  0  0  0  0  0  0  0  0  0
    1.4722   -0.0193    0.5270 C   0  0  0  0  0  0  0  0  0  0  0  0
    0.5683   -0.9009    1.3332 C   0  0  0  0  0  0  0  0  0  0  0  0
    0.8253    2.8906   -0.6453 H   0  0  0  0  0  0  0  0  0  0  0  0
   -1.1280    1.2380   -1.2988 H   0  0  0  0  0  0  0  0  0  0  0  0
   -2.2105    0.9903    0.6680 H   0  0  0  0  0  0  0  0  0  0  0  0
   -0.7624    1.3621    1.6648 H   0  0  0  0  0  0  0  0  0  0  0  0
   -1.5905   -1.1405    1.5108 H   0  0  0  0  0  0  0  0  0  0  0  0
   -1.8681   -0.8855   -1.0649 H   0  0  0  0  0  0  0  0  0  0  0  0
   -0.9491   -2.3480   -0.4943 H   0  0  0  0  0  0  0  0  0  0  0  0
    1.0567   -1.5609   -1.3830 H   0  0  0  0  0  0  0  0  0  0  0  0
   -0.0627   -0.5888   -2.4435 H   0  0  0  0  0  0  0  0  0  0  0  0
    1.4822    0.9353   -1.4254 H   0  0  0  0  0  0  0  0  0  0  0  0
    2.3213   -0.6678    0.1675 H   0  0  0  0  0  0  0  0  0  0  0  0
    1.8784    0.8300    1.1022 H   0  0  0  0  0  0  0  0  0  0  0  0
    0.6086   -0.6629    2.4269 H   0  0  0  0  0  0  0  0  0  0  0  0
    0.7674   -1.9910    1.1779 H   0  0  0  0  0  0  0  0  0  0  0  0
  1  2  1  0
  2  3  1  0
  3  4  1  0
  4  5  1  0
  5  6  1  0
  6  7  1  0
  7  8  1  0
  8  9  1  0
  7  2  1  0
  9  4  1  0
  1 10  1  0
  2 11  1  0
  3 12  1  0
  3 13  1  0
  4 14  1  0
  5 15  1  0
  5 16  1  0
  6 17  1  0
  6 18  1  0
  7 19  1  0
  8 20  1  0
  8 21  1  0
  9 22  1  0
  9 23  1  0
M  END
