
     RDKit          3D

 20 21  0  0  0  0  0  0  0  0999 V2000
    1.1065    1.5620   -0.8219 O   0  0  0  0  0  0  0  0  0  0  0  0
    1.1322    0.5583    0.1280 C   0  0  0  0  0  0  0  0  0  0  0  0
    1.8112   -0.7365   -0.3421 C   0  0  0  0  0  0  0  0  0  0  0  0
    0.6334   -1.4684    0.3221 C   0  0  0  0  0  0  0  0  0  0  0  0
   -0.1338   -0.2329    0.1710 C   0  0  0  0  0  0  0  0  0  0  0  0
   -1.0852   -0.0779   -0.9584 C   0  0  0  0  0  0  0  0  0  0  0  0
   -1.8847    0.8569   -0.0378 C   0  0  0  0  0  0  0  0  0  0  0  0
   -1.1788    0.1442    1.1275 C   0  0  0  0  0  0  0  0  0  0  0  0
    1.8496    2.1922   -0.6375 H   0  0  0  0  0  0  0  0  0  0  0  0
    1.5102    0.8642    1.1389 H   0  0  0  0  0  0  0  0  0  0  0  0
    2.7822   -0.9361    0.1001 H   0  0  0  0  0  0  0  0  0  0  0  0
    1.6972   -0.8497   -1.4319 H   0  0  0  0  0  0  0  0  0  0  0  0
    0.3473   -2.3716   -0.2185 H   0  0  0  0  0  0  0  0  0  0  0  0
    0.9309   -1.6449    1.3927 H   0  0  0  0  0  0  0  0  0  0  0  0
   -0.6663    0.4294   -1.8489 H   0  0  0  0  0  0  0  0  0  0  0  0
   -1.6602   -1.0170   -1.2068 H   0  0  0  0  0  0  0  0  0  0  0  0
   -1.4857    1.8833   -0.1831 H   0  0  0  0  0  0  0  0  0  0  0  0
   -2.9629    0.7262   -0.0717 H   0  0  0  0  0  0  0  0  0  0  0  0
   -1.8189   -0.7125    1.4253 H   0  0  0  0  0  0  0  0  0  0  0  0
   -0.9242    0.8309    1.9530 H   0  0  0  0  0  0  0  0  0  0  0  0
  1  2  1  0
  2  3  1  0
  3  4  1  0
  4  5  1  0
  5  6  1  0
  6  7  1  0
  7  8  1  0
  5  2  1  0
  8  5  1  0
  1  9  1  0
  2 10  1  0
  3 11  1  0
  3 12  1  0
  4 13  1  0
  4 14  1  0
  6 15  1  0
  6 16  1  0
  7 17  1  0
  7 18  1  0
  8 19  1  0
  8 20  1  0
M  END
