
     RDKit          3D

 19 20  0  0  0  0  0  0  0  0999 V2000
   -1.6183   -0.6864   -1.3561 O   0  0  0  0  0  0  0  0  0  0  0  0
   -1.3403   -0.4367   -0.0200 C   0  0  0  0  0  0  0  0  0  0  0  0
   -1.5927    1.0284    0.2080 C   0  0  0  0  0  0  0  0  0  0  0  0
   -0.4925    1.6321    0.5957 C   0  0  0  0  0  0  0  0  0  0  0  0
    0.6391    0.6699    0.6815 C   0  0  0  0  0  0  0  0  0  0  0  0
    1.5144    0.5908   -0.5391 C   0  0  0  0  0  0  0  0  0  0  0  0
    1.0393   -0.8084   -0.8355 C   0  0  0  0  0  0  0  0  0  0  0  0
    0.0905   -0.6761    0.3497 C   0  0  0  0  0  0  0  0  0  0  0  0
    0.3337   -1.6856    1.2592 O   0  0  0  0  0  0  0  0  0  0  0  0
   -1.5615   -1.6320   -1.6049 H   0  0  0  0  0  0  0  0  0  0  0  0
   -2.0489   -1.0141    0.6179 H   0  0  0  0  0  0  0  0  0  0  0  0
   -2.5532    1.4794    0.0627 H   0  0  0  0  0  0  0  0  0  0  0  0
   -0.3803    2.6814    0.8304 H   0  0  0  0  0  0  0  0  0  0  0  0
    1.1920    0.7446    1.6401 H   0  0  0  0  0  0  0  0  0  0  0  0
    1.3101    1.3493   -1.3023 H   0  0  0  0  0  0  0  0  0  0  0  0
    2.5956    0.5896   -0.2448 H   0  0  0  0  0  0  0  0  0  0  0  0
    0.4992   -0.9533   -1.7721 H   0  0  0  0  0  0  0  0  0  0  0  0
    1.8135   -1.5970   -0.7131 H   0  0  0  0  0  0  0  0  0  0  0  0
    0.5604   -1.2759    2.1427 H   0  0  0  0  0  0  0  0  0  0  0  0
  1  2  1  0
  2  3  1  0
  3  4  2  0
  4  5  1  0
  5  6  1  0
  6  7  1  0
  7  8  1  0
  8  9  1  0
  8  2  1  0
  8  5  1  0
  1 10  1  0
  2 11  1  0
  3 12  1  0
  4 13  1  0
  5 14  1  0
  6 15  1  0
  6 16  1  0
  7 17  1  0
  7 18  1  0
  9 19  1  0
M  END
