
     RDKit          3D

 21 22  0  0  0  0  0  0  0  0999 V2000
   -1.5930    2.1928   -0.7144 O   0  0  0  0  0  0  0  0  0  0  0  0
   -0.9050    1.1796   -0.0992 C   0  0  0  0  0  0  0  0  0  0  0  0
   -1.7477   -0.0835   -0.0228 C   0  0  0  0  0  0  0  0  0  0  0  0
   -1.0003   -1.1801    0.6813 C   0  0  0  0  0  0  0  0  0  0  0  0
    0.3328   -1.4787    0.0308 C   0  0  0  0  0  0  0  0  0  0  0  0
    1.1040   -0.1915   -0.0617 C   0  0  0  0  0  0  0  0  0  0  0  0
    2.5130   -0.2045    0.1463 C   0  0  0  0  0  0  0  0  0  0  0  0
    1.5699    0.3354    1.1741 O   0  0  0  0  0  0  0  0  0  0  0  0
    0.3628    0.8059   -0.8778 C   0  0  0  0  0  0  0  0  0  0  0  0
   -1.3839    3.0883   -0.3800 H   0  0  0  0  0  0  0  0  0  0  0  0
   -0.5504    1.4284    0.9259 H   0  0  0  0  0  0  0  0  0  0  0  0
   -1.9577   -0.4174   -1.0487 H   0  0  0  0  0  0  0  0  0  0  0  0
   -2.6476    0.1495    0.5688 H   0  0  0  0  0  0  0  0  0  0  0  0
   -0.7784   -0.9021    1.7387 H   0  0  0  0  0  0  0  0  0  0  0  0
   -1.6228   -2.0898    0.6813 H   0  0  0  0  0  0  0  0  0  0  0  0
    0.8668   -2.2020    0.6794 H   0  0  0  0  0  0  0  0  0  0  0  0
    0.2351   -1.9362   -0.9629 H   0  0  0  0  0  0  0  0  0  0  0  0
    2.9840   -1.1074    0.5854 H   0  0  0  0  0  0  0  0  0  0  0  0
    3.2330    0.5763   -0.1199 H   0  0  0  0  0  0  0  0  0  0  0  0
    0.9849    1.6840   -1.0918 H   0  0  0  0  0  0  0  0  0  0  0  0
    0.0006    0.3532   -1.8328 H   0  0  0  0  0  0  0  0  0  0  0  0
  1  2  1  0
  2  3  1  0
  3  4  1  0
  4  5  1  0
  5  6  1  0
  6  7  1  0
  7  8  1  0
  6  9  1  0
  9  2  1  0
  8  6  1  0
  1 10  1  0
  2 11  1  0
  3 12  1  0
  3 13  1  0
  4 14  1  0
  4 15  1  0
  5 16  1  0
  5 17  1  0
  7 18  1  0
  7 19  1  0
  9 20  1  0
  9 21  1  0
M  END
