
     RDKit          3D

 20 20  0  0  0  0  0  0  0  0999 V2000
   -2.0390   -1.4369    0.6982 O   0  0  0  0  0  0  0  0  0  0  0  0
   -1.0265   -0.5564    0.3864 C   0  0  0  0  0  0  0  0  0  0  0  0
   -1.5566    0.7824   -0.0956 C   0  0  0  0  0  0  0  0  0  0  0  0
   -0.4234    1.6970   -0.2974 C   0  0  0  0  0  0  0  0  0  0  0  0
    0.8804    1.5124   -0.0648 C   0  0  0  0  0  0  0  0  0  0  0  0
    1.6033    0.3377    0.4671 C   0  0  0  0  0  0  0  0  0  0  0  0
    1.3054   -0.9351   -0.2561 C   0  0  0  0  0  0  0  0  0  0  0  0
   -0.1120   -1.0772   -0.7041 C   0  0  0  0  0  0  0  0  0  0  0  0
   -1.7151   -2.0141    1.4511 H   0  0  0  0  0  0  0  0  0  0  0  0
   -0.4557   -0.3417    1.3214 H   0  0  0  0  0  0  0  0  0  0  0  0
   -1.9994    0.5796   -1.1148 H   0  0  0  0  0  0  0  0  0  0  0  0
   -2.3598    1.1815    0.5305 H   0  0  0  0  0  0  0  0  0  0  0  0
   -0.7327    2.6734   -0.7030 H   0  0  0  0  0  0  0  0  0  0  0  0
    1.4566    2.4106   -0.3301 H   0  0  0  0  0  0  0  0  0  0  0  0
    1.4961    0.2290    1.5773 H   0  0  0  0  0  0  0  0  0  0  0  0
    2.7030    0.5456    0.3175 H   0  0  0  0  0  0  0  0  0  0  0  0
    1.5040   -1.7757    0.4720 H   0  0  0  0  0  0  0  0  0  0  0  0
    2.0251   -1.1150   -1.0965 H   0  0  0  0  0  0  0  0  0  0  0  0
   -0.2425   -0.5476   -1.6616 H   0  0  0  0  0  0  0  0  0  0  0  0
   -0.3112   -2.1494   -0.8977 H   0  0  0  0  0  0  0  0  0  0  0  0
  1  2  1  0
  2  3  1  0
  3  4  1  0
  4  5  2  0
  5  6  1  0
  6  7  1  0
  7  8  1  0
  8  2  1  0
  1  9  1  0
  2 10  1  0
  3 11  1  0
  3 12  1  0
  4 13  1  0
  5 14  1  0
  6 15  1  0
  6 16  1  0
  7 17  1  0
  7 18  1  0
  8 19  1  0
  8 20  1  0
M  END
