
     RDKit          3D

 21 22  0  0  0  0  0  0  0  0999 V2000
   -0.3530    1.5753   -0.6833 O   0  0  0  0  0  0  0  0  0  0  0  0
   -0.8400    0.8645    0.3794 C   0  0  0  0  0  0  0  0  0  0  0  0
   -2.0654    0.0884   -0.0902 C   0  0  0  0  0  0  0  0  0  0  0  0
   -1.7273   -1.0358   -0.7895 O   0  0  0  0  0  0  0  0  0  0  0  0
   -0.4169   -1.0779   -1.2256 C   0  0  0  0  0  0  0  0  0  0  0  0
    0.5979   -1.0675   -0.1355 C   0  0  0  0  0  0  0  0  0  0  0  0
    1.7817   -0.1727   -0.3019 C   0  0  0  0  0  0  0  0  0  0  0  0
    1.5311    0.3244    1.1313 C   0  0  0  0  0  0  0  0  0  0  0  0
    0.1075   -0.1374    0.9569 C   0  0  0  0  0  0  0  0  0  0  0  0
   -0.3513    2.5409   -0.5913 H   0  0  0  0  0  0  0  0  0  0  0  0
   -1.1942    1.5741    1.1445 H   0  0  0  0  0  0  0  0  0  0  0  0
   -2.7312    0.7911   -0.6346 H   0  0  0  0  0  0  0  0  0  0  0  0
   -2.6278   -0.1572    0.8590 H   0  0  0  0  0  0  0  0  0  0  0  0
   -0.3060   -2.0723   -1.7547 H   0  0  0  0  0  0  0  0  0  0  0  0
   -0.2108   -0.3255   -2.0361 H   0  0  0  0  0  0  0  0  0  0  0  0
    0.9051   -2.0796    0.2211 H   0  0  0  0  0  0  0  0  0  0  0  0
    2.7797   -0.6601   -0.3097 H   0  0  0  0  0  0  0  0  0  0  0  0
    1.7394    0.6049   -1.0625 H   0  0  0  0  0  0  0  0  0  0  0  0
    2.0535   -0.2859    1.9036 H   0  0  0  0  0  0  0  0  0  0  0  0
    1.6662    1.4152    1.2549 H   0  0  0  0  0  0  0  0  0  0  0  0
   -0.3383   -0.7069    1.7644 H   0  0  0  0  0  0  0  0  0  0  0  0
  1  2  1  0
  2  3  1  0
  3  4  1  0
  4  5  1  0
  5  6  1  0
  6  7  1  0
  7  8  1  0
  8  9  1  0
  9  2  1  0
  9  6  1  0
  1 10  1  0
  2 11  1  0
  3 12  1  0
  3 13  1  0
  5 14  1  0
  5 15  1  0
  6 16  1  0
  7 17  1  0
  7 18  1  0
  8 19  1  0
  8 20  1  0
  9 21  1  0
M  END
