
     RDKit          3D

 18 20  0  0  0  0  0  0  0  0999 V2000
    1.8114   -1.2822   -0.6792 O   0  0  0  0  0  0  0  0  0  0  0  0
    1.2095   -0.1411   -0.1999 C   0  0  0  0  0  0  0  0  0  0  0  0
    0.0790    0.3459   -1.0659 C   0  0  0  0  0  0  0  0  0  0  0  0
   -0.4459    1.4787   -0.1767 C   0  0  0  0  0  0  0  0  0  0  0  0
   -0.5915    0.6558    1.1135 C   0  0  0  0  0  0  0  0  0  0  0  0
   -0.9724   -0.6992    0.7077 C   0  0  0  0  0  0  0  0  0  0  0  0
   -0.9697   -0.7056   -0.8291 C   0  0  0  0  0  0  0  0  0  0  0  0
    0.4167   -0.4082    1.0892 C   0  0  0  0  0  0  0  0  0  0  0  0
    2.5543   -1.5041   -0.0634 H   0  0  0  0  0  0  0  0  0  0  0  0
    1.8868    0.7030   -0.0262 H   0  0  0  0  0  0  0  0  0  0  0  0
    0.2989    0.6123   -2.0632 H   0  0  0  0  0  0  0  0  0  0  0  0
    0.3223    2.2489   -0.0720 H   0  0  0  0  0  0  0  0  0  0  0  0
   -1.4075    1.8164   -0.5570 H   0  0  0  0  0  0  0  0  0  0  0  0
   -0.8542    1.1428    2.0362 H   0  0  0  0  0  0  0  0  0  0  0  0
   -1.6389   -1.3609    1.2454 H   0  0  0  0  0  0  0  0  0  0  0  0
   -0.6791   -1.7113   -1.1783 H   0  0  0  0  0  0  0  0  0  0  0  0
   -1.9420   -0.3745   -1.2342 H   0  0  0  0  0  0  0  0  0  0  0  0
    0.9223   -0.8167    1.9531 H   0  0  0  0  0  0  0  0  0  0  0  0
  1  2  1  0
  2  3  1  0
  3  4  1  0
  4  5  1  0
  5  6  1  0
  6  7  1  0
  6  8  1  0
  8  2  1  0
  7  3  1  0
  8  5  1  0
  1  9  1  0
  2 10  1  0
  3 11  1  0
  4 12  1  0
  4 13  1  0
  5 14  1  0
  6 15  1  0
  7 16  1  0
  7 17  1  0
  8 18  1  0
M  END
