
     RDKit          3D

 19 21  0  0  0  0  0  0  0  0999 V2000
    2.3085    0.6964    0.7207 O   0  0  0  0  0  0  0  0  0  0  0  0
    1.5523   -0.2241   -0.0106 C   0  0  0  0  0  0  0  0  0  0  0  0
    0.9942    0.4664   -1.2714 C   0  0  0  0  0  0  0  0  0  0  0  0
   -0.4537    0.5109   -0.8962 C   0  0  0  0  0  0  0  0  0  0  0  0
   -0.7491   -0.8602   -0.3048 C   0  0  0  0  0  0  0  0  0  0  0  0
   -2.0390   -0.6018    0.4139 C   0  0  0  0  0  0  0  0  0  0  0  0
   -1.7666    0.6876    0.9418 O   0  0  0  0  0  0  0  0  0  0  0  0
   -0.4669    0.9021    0.5879 C   0  0  0  0  0  0  0  0  0  0  0  0
    0.2661   -0.4392    0.7320 C   0  0  0  0  0  0  0  0  0  0  0  0
    2.1321    0.4758    1.6832 H   0  0  0  0  0  0  0  0  0  0  0  0
    2.0878   -1.1381   -0.2490 H   0  0  0  0  0  0  0  0  0  0  0  0
    1.4445    1.4485   -1.4209 H   0  0  0  0  0  0  0  0  0  0  0  0
    1.1745   -0.1636   -2.1616 H   0  0  0  0  0  0  0  0  0  0  0  0
   -1.1725    0.9592   -1.5312 H   0  0  0  0  0  0  0  0  0  0  0  0
   -0.5971   -1.7222   -0.8863 H   0  0  0  0  0  0  0  0  0  0  0  0
   -2.9286   -0.6118   -0.2132 H   0  0  0  0  0  0  0  0  0  0  0  0
   -2.1082   -1.2649    1.3122 H   0  0  0  0  0  0  0  0  0  0  0  0
    0.0595    1.7792    0.8663 H   0  0  0  0  0  0  0  0  0  0  0  0
    0.2622   -0.9002    1.6874 H   0  0  0  0  0  0  0  0  0  0  0  0
  1  2  1  0
  2  3  1  0
  3  4  1  0
  4  5  1  0
  5  6  1  0
  6  7  1  0
  7  8  1  0
  8  9  1  0
  9  2  1  0
  8  4  1  0
  9  5  1  0
  1 10  1  0
  2 11  1  0
  3 12  1  0
  3 13  1  0
  4 14  1  0
  5 15  1  0
  6 16  1  0
  6 17  1  0
  8 18  1  0
  9 19  1  0
M  END
