
     RDKit          3D

 19 20  0  0  0  0  0  0  0  0999 V2000
    1.9903   -0.9649   -0.4729 O   0  0  0  0  0  0  0  0  0  0  0  0
    1.3226   -0.3400    0.5714 C   0  0  0  0  0  0  0  0  0  0  0  0
    1.0072    1.0830    0.2432 C   0  0  0  0  0  0  0  0  0  0  0  0
   -0.3418    1.2958   -0.3610 C   0  0  0  0  0  0  0  0  0  0  0  0
   -1.4162    0.4195    0.1930 C   0  0  0  0  0  0  0  0  0  0  0  0
   -1.6358   -0.8185   -0.6913 C   0  0  0  0  0  0  0  0  0  0  0  0
   -0.4331   -1.4917   -0.4530 O   0  0  0  0  0  0  0  0  0  0  0  0
    0.0217   -1.0993    0.7845 C   0  0  0  0  0  0  0  0  0  0  0  0
   -0.8820   -0.2199    1.3321 O   0  0  0  0  0  0  0  0  0  0  0  0
    2.9299   -1.1438   -0.2217 H   0  0  0  0  0  0  0  0  0  0  0  0
    1.9105   -0.4692    1.5046 H   0  0  0  0  0  0  0  0  0  0  0  0
    1.7631    1.4833   -0.4740 H   0  0  0  0  0  0  0  0  0  0  0  0
    1.1384    1.6774    1.1832 H   0  0  0  0  0  0  0  0  0  0  0  0
   -0.3041    1.2416   -1.4825 H   0  0  0  0  0  0  0  0  0  0  0  0
   -0.6370    2.3614   -0.1274 H   0  0  0  0  0  0  0  0  0  0  0  0
   -2.3559    0.9302    0.3969 H   0  0  0  0  0  0  0  0  0  0  0  0
   -1.7939   -0.5573   -1.7364 H   0  0  0  0  0  0  0  0  0  0  0  0
   -2.4290   -1.4128   -0.2215 H   0  0  0  0  0  0  0  0  0  0  0  0
    0.1451   -1.9746    1.4425 H   0  0  0  0  0  0  0  0  0  0  0  0
  1  2  1  0
  2  3  1  0
  3  4  1  0
  4  5  1  0
  5  6  1  0
  6  7  1  0
  7  8  1  0
  8  9  1  0
  8  2  1  0
  9  5  1  0
  1 10  1  0
  2 11  1  0
  3 12  1  0
  3 13  1  0
  4 14  1  0
  4 15  1  0
  5 16  1  0
  6 17  1  0
  6 18  1  0
  8 19  1  0
M  END
