
     RDKit          3D

 19 20  0  0  0  0  0  0  0  0999 V2000
   -0.7850   -0.8491    1.4475 O   0  0  0  0  0  0  0  0  0  0  0  0
   -0.7271   -1.0772    0.0627 C   0  0  0  0  0  0  0  0  0  0  0  0
   -1.5830    0.0312   -0.5723 C   0  0  0  0  0  0  0  0  0  0  0  0
   -1.1911    1.2813    0.2299 C   0  0  0  0  0  0  0  0  0  0  0  0
    0.1512    1.4624    0.2972 O   0  0  0  0  0  0  0  0  0  0  0  0
    0.9502    0.6604   -0.4279 C   0  0  0  0  0  0  0  0  0  0  0  0
    2.2081    0.1430    0.2693 C   0  0  0  0  0  0  0  0  0  0  0  0
    1.7060   -1.1326    0.3565 O   0  0  0  0  0  0  0  0  0  0  0  0
    0.6698   -0.7812   -0.4589 C   0  0  0  0  0  0  0  0  0  0  0  0
   -0.5095   -1.6079    1.9793 H   0  0  0  0  0  0  0  0  0  0  0  0
   -1.0961   -2.0613   -0.2155 H   0  0  0  0  0  0  0  0  0  0  0  0
   -2.6464   -0.1723   -0.4689 H   0  0  0  0  0  0  0  0  0  0  0  0
   -1.2705    0.2120   -1.6271 H   0  0  0  0  0  0  0  0  0  0  0  0
   -1.5524    1.0399    1.2742 H   0  0  0  0  0  0  0  0  0  0  0  0
   -1.7758    2.1325   -0.1509 H   0  0  0  0  0  0  0  0  0  0  0  0
    1.2065    1.1247   -1.4173 H   0  0  0  0  0  0  0  0  0  0  0  0
    3.1171    0.2188   -0.3476 H   0  0  0  0  0  0  0  0  0  0  0  0
    2.3849    0.5870    1.2687 H   0  0  0  0  0  0  0  0  0  0  0  0
    0.7430   -1.2117   -1.4990 H   0  0  0  0  0  0  0  0  0  0  0  0
  1  2  1  0
  2  3  1  0
  3  4  1  0
  4  5  1  0
  5  6  1  0
  6  7  1  0
  7  8  1  0
  8  9  1  0
  9  2  1  0
  9  6  1  0
  1 10  1  0
  2 11  1  0
  3 12  1  0
  3 13  1  0
  4 14  1  0
  4 15  1  0
  6 16  1  0
  7 17  1  0
  7 18  1  0
  9 19  1  0
M  END
