
     RDKit          3D

 19 20  0  0  0  0  0  0  0  0999 V2000
    2.7752   -0.2515    0.2127 O   0  0  0  0  0  0  0  0  0  0  0  0
    1.4164   -0.3653   -0.1051 C   0  0  0  0  0  0  0  0  0  0  0  0
    0.3913   -0.3338    0.9494 C   0  0  0  0  0  0  0  0  0  0  0  0
   -0.9358   -0.9745    0.7775 C   0  0  0  0  0  0  0  0  0  0  0  0
   -1.5234   -0.8330   -0.5859 C   0  0  0  0  0  0  0  0  0  0  0  0
   -1.3375    0.5034   -1.1899 C   0  0  0  0  0  0  0  0  0  0  0  0
   -0.3408    1.2783   -0.8063 C   0  0  0  0  0  0  0  0  0  0  0  0
    0.6363    0.9054    0.2118 C   0  0  0  0  0  0  0  0  0  0  0  0
    1.2772    1.9434    0.8632 O   0  0  0  0  0  0  0  0  0  0  0  0
    3.3176   -0.5514   -0.5580 H   0  0  0  0  0  0  0  0  0  0  0  0
    1.1516   -0.9300   -1.0216 H   0  0  0  0  0  0  0  0  0  0  0  0
    0.7653   -0.3593    2.0099 H   0  0  0  0  0  0  0  0  0  0  0  0
   -0.8423   -2.0819    0.9795 H   0  0  0  0  0  0  0  0  0  0  0  0
   -1.6783   -0.5868    1.5190 H   0  0  0  0  0  0  0  0  0  0  0  0
   -1.0427   -1.5900   -1.2492 H   0  0  0  0  0  0  0  0  0  0  0  0
   -2.6131   -1.0494   -0.5163 H   0  0  0  0  0  0  0  0  0  0  0  0
   -2.0170    0.8365   -1.9398 H   0  0  0  0  0  0  0  0  0  0  0  0
   -0.2480    2.2509   -1.2817 H   0  0  0  0  0  0  0  0  0  0  0  0
    0.8479    2.1891    1.7308 H   0  0  0  0  0  0  0  0  0  0  0  0
  1  2  1  0
  2  3  1  0
  3  4  1  0
  4  5  1  0
  5  6  1  0
  6  7  2  0
  7  8  1  0
  8  9  1  0
  8  2  1  0
  8  3  1  0
  1 10  1  0
  2 11  1  0
  3 12  1  0
  4 13  1  0
  4 14  1  0
  5 15  1  0
  5 16  1  0
  6 17  1  0
  7 18  1  0
  9 19  1  0
M  END
