
     RDKit          3D

 17 17  0  0  0  0  0  0  0  0999 V2000
    2.4145    0.0790    0.3211 O   0  0  0  0  0  0  0  0  0  0  0  0
    1.1628   -0.0323   -0.2347 C   0  0  0  0  0  0  0  0  0  0  0  0
    0.4574   -1.3163    0.1705 C   0  0  0  0  0  0  0  0  0  0  0  0
   -0.9463   -0.9818   -0.3563 C   0  0  0  0  0  0  0  0  0  0  0  0
   -1.1553    0.3450    0.3745 C   0  0  0  0  0  0  0  0  0  0  0  0
   -2.1908    1.0769   -0.1433 O   0  0  0  0  0  0  0  0  0  0  0  0
    0.1863    1.0113    0.2777 C   0  0  0  0  0  0  0  0  0  0  0  0
    2.7292    1.0044    0.1650 H   0  0  0  0  0  0  0  0  0  0  0  0
    1.1599   -0.0199   -1.3455 H   0  0  0  0  0  0  0  0  0  0  0  0
    0.3770   -1.3458    1.2736 H   0  0  0  0  0  0  0  0  0  0  0  0
    0.8737   -2.2076   -0.2885 H   0  0  0  0  0  0  0  0  0  0  0  0
   -0.8155   -0.8116   -1.4458 H   0  0  0  0  0  0  0  0  0  0  0  0
   -1.6801   -1.7341   -0.0952 H   0  0  0  0  0  0  0  0  0  0  0  0
   -1.3787    0.0800    1.4257 H   0  0  0  0  0  0  0  0  0  0  0  0
   -1.9178    1.6296   -0.9025 H   0  0  0  0  0  0  0  0  0  0  0  0
    0.1938    1.8360   -0.4685 H   0  0  0  0  0  0  0  0  0  0  0  0
    0.5297    1.3869    1.2724 H   0  0  0  0  0  0  0  0  0  0  0  0
  1  2  1  0
  2  3  1  0
  3  4  1  0
  4  5  1  0
  5  6  1  0
  5  7  1  0
  7  2  1  0
  1  8  1  0
  2  9  1  0
  3 10  1  0
  3 11  1  0
  4 12  1  0
  4 13  1  0
  5 14  1  0
  6 15  1  0
  7 16  1  0
  7 17  1  0
M  END
