
     RDKit          3D

 17 19  0  0  0  0  0  0  0  0999 V2000
   -1.7081    0.6895   -1.1937 O   0  0  0  0  0  0  0  0  0  0  0  0
   -1.5464    0.6477    0.1987 C   0  0  0  0  0  0  0  0  0  0  0  0
   -0.6674   -0.4361    0.7582 C   0  0  0  0  0  0  0  0  0  0  0  0
   -0.0072   -1.3526   -0.1927 C   0  0  0  0  0  0  0  0  0  0  0  0
    1.2776   -1.2002   -0.5272 C   0  0  0  0  0  0  0  0  0  0  0  0
    1.8799   -0.0561    0.1547 C   0  0  0  0  0  0  0  0  0  0  0  0
    2.2266    1.1475   -0.2235 O   0  0  0  0  0  0  0  0  0  0  0  0
    0.9120    1.0675   -0.3071 C   0  0  0  0  0  0  0  0  0  0  0  0
   -0.1613    1.0147    0.6701 C   0  0  0  0  0  0  0  0  0  0  0  0
   -2.2428   -0.0839   -1.5229 H   0  0  0  0  0  0  0  0  0  0  0  0
   -2.4278    1.0049    0.7589 H   0  0  0  0  0  0  0  0  0  0  0  0
   -0.9642   -0.8079    1.7600 H   0  0  0  0  0  0  0  0  0  0  0  0
   -0.6362   -2.1598   -0.6026 H   0  0  0  0  0  0  0  0  0  0  0  0
    1.7170   -1.8841   -1.2172 H   0  0  0  0  0  0  0  0  0  0  0  0
    1.9505   -0.2306    1.2548 H   0  0  0  0  0  0  0  0  0  0  0  0
    0.5675    1.0370   -1.3799 H   0  0  0  0  0  0  0  0  0  0  0  0
   -0.1697    1.6027    1.6114 H   0  0  0  0  0  0  0  0  0  0  0  0
  1  2  1  0
  2  3  1  0
  3  4  1  0
  4  5  2  0
  5  6  1  0
  6  7  1  0
  7  8  1  0
  8  9  1  0
  9  2  1  0
  9  3  1  0
  8  6  1  0
  1 10  1  0
  2 11  1  0
  3 12  1  0
  4 13  1  0
  5 14  1  0
  6 15  1  0
  8 16  1  0
  9 17  1  0
M  END
