
     RDKit          3D

 19 21  0  0  0  0  0  0  0  0999 V2000
    1.9993    1.5415    0.5854 O   0  0  0  0  0  0  0  0  0  0  0  0
    1.6378    0.6609   -0.3968 C   0  0  0  0  0  0  0  0  0  0  0  0
    1.7175   -0.8099   -0.2372 C   0  0  0  0  0  0  0  0  0  0  0  0
    0.4503   -0.1503   -0.2062 C   0  0  0  0  0  0  0  0  0  0  0  0
   -0.6493   -0.1428   -1.1561 C   0  0  0  0  0  0  0  0  0  0  0  0
   -1.6359   -0.0815    0.0035 C   0  0  0  0  0  0  0  0  0  0  0  0
   -2.5578   -1.1057    0.0823 O   0  0  0  0  0  0  0  0  0  0  0  0
   -1.4612    0.9133    1.0604 C   0  0  0  0  0  0  0  0  0  0  0  0
   -0.4201   -0.1591    0.9870 C   0  0  0  0  0  0  0  0  0  0  0  0
    2.8047    1.3392    1.0802 H   0  0  0  0  0  0  0  0  0  0  0  0
    1.8462    1.0156   -1.4491 H   0  0  0  0  0  0  0  0  0  0  0  0
    2.1606   -1.1389    0.7489 H   0  0  0  0  0  0  0  0  0  0  0  0
    2.0354   -1.4800   -1.0565 H   0  0  0  0  0  0  0  0  0  0  0  0
   -0.7240    0.8251   -1.7197 H   0  0  0  0  0  0  0  0  0  0  0  0
   -0.8053   -0.9751   -1.8414 H   0  0  0  0  0  0  0  0  0  0  0  0
   -2.6913   -1.4344   -0.8596 H   0  0  0  0  0  0  0  0  0  0  0  0
   -2.1129    0.8504    1.9320 H   0  0  0  0  0  0  0  0  0  0  0  0
   -1.1294    1.9337    0.7785 H   0  0  0  0  0  0  0  0  0  0  0  0
   -0.4645   -1.0395    1.6645 H   0  0  0  0  0  0  0  0  0  0  0  0
  1  2  1  0
  2  3  1  0
  3  4  1  0
  4  5  1  0
  5  6  1  0
  6  7  1  0
  6  8  1  0
  8  9  1  0
  4  2  1  0
  9  6  1  0
  9  4  1  0
  1 10  1  0
  2 11  1  0
  3 12  1  0
  3 13  1  0
  5 14  1  0
  5 15  1  0
  7 16  1  0
  8 17  1  0
  8 18  1  0
  9 19  1  0
M  END
