
     RDKit          3D

 21 22  0  0  0  0  0  0  0  0999 V2000
   -0.8400    2.0409   -0.8071 O   0  0  0  0  0  0  0  0  0  0  0  0
   -0.1168    1.3334    0.1475 C   0  0  0  0  0  0  0  0  0  0  0  0
   -1.0927    0.3541    0.8240 C   0  0  0  0  0  0  0  0  0  0  0  0
   -1.4401   -0.7951   -0.0619 C   0  0  0  0  0  0  0  0  0  0  0  0
   -0.4294   -1.7849   -0.3743 C   0  0  0  0  0  0  0  0  0  0  0  0
    0.8011   -1.7320    0.1898 O   0  0  0  0  0  0  0  0  0  0  0  0
    1.3130   -0.5446    0.5360 C   0  0  0  0  0  0  0  0  0  0  0  0
    2.2624    0.2784   -0.2150 C   0  0  0  0  0  0  0  0  0  0  0  0
    0.8734    0.4732   -0.5422 C   0  0  0  0  0  0  0  0  0  0  0  0
   -0.8713    3.0066   -0.6282 H   0  0  0  0  0  0  0  0  0  0  0  0
    0.2995    1.9792    0.9405 H   0  0  0  0  0  0  0  0  0  0  0  0
   -2.0422    0.9649    0.9214 H   0  0  0  0  0  0  0  0  0  0  0  0
   -0.8016    0.1043    1.8404 H   0  0  0  0  0  0  0  0  0  0  0  0
   -1.8659   -0.3360   -1.0070 H   0  0  0  0  0  0  0  0  0  0  0  0
   -2.3590   -1.2635    0.4087 H   0  0  0  0  0  0  0  0  0  0  0  0
   -0.2702   -1.8409   -1.4960 H   0  0  0  0  0  0  0  0  0  0  0  0
   -0.8376   -2.8197   -0.1468 H   0  0  0  0  0  0  0  0  0  0  0  0
    1.1849   -0.2718    1.6021 H   0  0  0  0  0  0  0  0  0  0  0  0
    2.8940   -0.2511   -0.9562 H   0  0  0  0  0  0  0  0  0  0  0  0
    2.8442    1.0566    0.3300 H   0  0  0  0  0  0  0  0  0  0  0  0
    0.4945    0.0483   -1.5059 H   0  0  0  0  0  0  0  0  0  0  0  0
  1  2  1  0
  2  3  1  0
  3  4  1  0
  4  5  1  0
  5  6  1  0
  6  7  1  0
  7  8  1  0
  8  9  1  0
  9  2  1  0
  9  7  1  0
  1 10  1  0
  2 11  1  0
  3 12  1  0
  3 13  1  0
  4 14  1  0
  4 15  1  0
  5 16  1  0
  5 17  1  0
  7 18  1  0
  8 19  1  0
  8 20  1  0
  9 21  1  0
M  END
