
     RDKit          3D

 19 20  0  0  0  0  0  0  0  0999 V2000
    1.9192    0.7304    0.7599 O   0  0  0  0  0  0  0  0  0  0  0  0
    1.4391   -0.1878   -0.1774 C   0  0  0  0  0  0  0  0  0  0  0  0
    0.8032    0.4985   -1.3352 C   0  0  0  0  0  0  0  0  0  0  0  0
   -0.5059    0.5161   -1.5232 C   0  0  0  0  0  0  0  0  0  0  0  0
   -1.4453   -0.1334   -0.6165 C   0  0  0  0  0  0  0  0  0  0  0  0
   -1.4508    0.3986    0.8197 C   0  0  0  0  0  0  0  0  0  0  0  0
   -0.6842    1.5192    1.0613 O   0  0  0  0  0  0  0  0  0  0  0  0
   -0.8810   -0.9085    0.4909 C   0  0  0  0  0  0  0  0  0  0  0  0
    0.5680   -1.2111    0.4474 C   0  0  0  0  0  0  0  0  0  0  0  0
    2.8488    0.9996    0.5721 H   0  0  0  0  0  0  0  0  0  0  0  0
    2.3461   -0.7046   -0.5856 H   0  0  0  0  0  0  0  0  0  0  0  0
    1.4212    1.0092   -2.0628 H   0  0  0  0  0  0  0  0  0  0  0  0
   -0.8816    1.0372   -2.3891 H   0  0  0  0  0  0  0  0  0  0  0  0
   -2.4561   -0.3833   -1.0265 H   0  0  0  0  0  0  0  0  0  0  0  0
   -2.4565    0.4457    1.3182 H   0  0  0  0  0  0  0  0  0  0  0  0
   -0.7261    1.7728    1.9957 H   0  0  0  0  0  0  0  0  0  0  0  0
   -1.5052   -1.7951    0.8126 H   0  0  0  0  0  0  0  0  0  0  0  0
    0.7195   -2.2072   -0.0636 H   0  0  0  0  0  0  0  0  0  0  0  0
    0.9277   -1.3962    1.5020 H   0  0  0  0  0  0  0  0  0  0  0  0
  1  2  1  0
  2  3  1  0
  3  4  2  0
  4  5  1  0
  5  6  1  0
  6  7  1  0
  6  8  1  0
  8  9  1  0
  9  2  1  0
  8  5  1  0
  1 10  1  0
  2 11  1  0
  3 12  1  0
  4 13  1  0
  5 14  1  0
  6 15  1  0
  7 16  1  0
  8 17  1  0
  9 18  1  0
  9 19  1  0
M  END
