
     RDKit          3D

 19 21  0  0  0  0  0  0  0  0999 V2000
    3.1404    0.5509    0.1514 O   0  0  0  0  0  0  0  0  0  0  0  0
    1.9314    0.1435   -0.4365 C   0  0  0  0  0  0  0  0  0  0  0  0
    1.6084   -1.3026   -0.2334 C   0  0  0  0  0  0  0  0  0  0  0  0
    0.8116   -0.1593    0.4356 C   0  0  0  0  0  0  0  0  0  0  0  0
   -0.6171   -0.1351    0.0491 C   0  0  0  0  0  0  0  0  0  0  0  0
   -1.6222   -0.4888    1.1308 C   0  0  0  0  0  0  0  0  0  0  0  0
   -1.6031    0.8300    0.4758 C   0  0  0  0  0  0  0  0  0  0  0  0
   -2.1301    0.7851   -0.9502 C   0  0  0  0  0  0  0  0  0  0  0  0
   -1.0153   -0.0293   -1.2517 O   0  0  0  0  0  0  0  0  0  0  0  0
    3.5929    1.2495   -0.3512 H   0  0  0  0  0  0  0  0  0  0  0  0
    1.8281    0.4995   -1.4778 H   0  0  0  0  0  0  0  0  0  0  0  0
    2.2289   -1.9291    0.4365 H   0  0  0  0  0  0  0  0  0  0  0  0
    1.1373   -1.8535   -1.0456 H   0  0  0  0  0  0  0  0  0  0  0  0
    1.0007   -0.0645    1.5402 H   0  0  0  0  0  0  0  0  0  0  0  0
   -1.2288   -0.5458    2.1450 H   0  0  0  0  0  0  0  0  0  0  0  0
   -2.4305   -1.1898    0.8887 H   0  0  0  0  0  0  0  0  0  0  0  0
   -1.4265    1.7725    0.9731 H   0  0  0  0  0  0  0  0  0  0  0  0
   -3.0387    0.1324   -1.0209 H   0  0  0  0  0  0  0  0  0  0  0  0
   -2.1674    1.7342   -1.4760 H   0  0  0  0  0  0  0  0  0  0  0  0
  1  2  1  0
  2  3  1  0
  3  4  1  0
  4  5  1  0
  5  6  1  0
  6  7  1  0
  7  8  1  0
  8  9  1  0
  4  2  1  0
  7  5  1  0
  9  5  1  0
  1 10  1  0
  2 11  1  0
  3 12  1  0
  3 13  1  0
  4 14  1  0
  6 15  1  0
  6 16  1  0
  7 17  1  0
  8 18  1  0
  8 19  1  0
M  END
