
     RDKit          3D

 23 24  0  0  0  0  0  0  0  0999 V2000
   -0.7133    2.4601    1.0587 O   0  0  0  0  0  0  0  0  0  0  0  0
   -0.3542    1.4637    0.1484 C   0  0  0  0  0  0  0  0  0  0  0  0
   -1.5050    0.5680   -0.1276 C   0  0  0  0  0  0  0  0  0  0  0  0
   -1.3920   -0.8196    0.4154 C   0  0  0  0  0  0  0  0  0  0  0  0
   -0.5042   -1.7374   -0.3394 C   0  0  0  0  0  0  0  0  0  0  0  0
    0.9674   -1.5822   -0.0080 C   0  0  0  0  0  0  0  0  0  0  0  0
    1.3007   -0.1905   -0.4299 C   0  0  0  0  0  0  0  0  0  0  0  0
    2.1615    0.7377    0.2746 C   0  0  0  0  0  0  0  0  0  0  0  0
    0.7767    0.6863    0.7276 C   0  0  0  0  0  0  0  0  0  0  0  0
   -1.2697    3.1538    0.6298 H   0  0  0  0  0  0  0  0  0  0  0  0
   -0.0485    2.0199   -0.7869 H   0  0  0  0  0  0  0  0  0  0  0  0
   -2.4337    1.0184    0.3195 H   0  0  0  0  0  0  0  0  0  0  0  0
   -1.6887    0.5328   -1.2120 H   0  0  0  0  0  0  0  0  0  0  0  0
   -1.1346   -0.8516    1.4932 H   0  0  0  0  0  0  0  0  0  0  0  0
   -2.4345   -1.2564    0.3594 H   0  0  0  0  0  0  0  0  0  0  0  0
   -0.6010   -1.6020   -1.4415 H   0  0  0  0  0  0  0  0  0  0  0  0
   -0.8082   -2.7974   -0.1145 H   0  0  0  0  0  0  0  0  0  0  0  0
    1.5442   -2.2970   -0.5955 H   0  0  0  0  0  0  0  0  0  0  0  0
    1.1210   -1.7511    1.0955 H   0  0  0  0  0  0  0  0  0  0  0  0
    0.9966    0.0486   -1.4582 H   0  0  0  0  0  0  0  0  0  0  0  0
    2.9327    0.3281    0.9412 H   0  0  0  0  0  0  0  0  0  0  0  0
    2.5138    1.6261   -0.2891 H   0  0  0  0  0  0  0  0  0  0  0  0
    0.5733    0.2418    1.7002 H   0  0  0  0  0  0  0  0  0  0  0  0
  1  2  1  0
  2  3  1  0
  3  4  1  0
  4  5  1  0
  5  6  1  0
  6  7  1  0
  7  8  1  0
  8  9  1  0
  9  2  1  0
  9  7  1  0
  1 10  1  0
  2 11  1  0
  3 12  1  0
  3 13  1  0
  4 14  1  0
  4 15  1  0
  5 16  1  0
  5 17  1  0
  6 18  1  0
  6 19  1  0
  7 20  1  0
  8 21  1  0
  8 22  1  0
  9 23  1  0
M  END
