
     RDKit          3D

 21 22  0  0  0  0  0  0  0  0999 V2000
    2.5636    1.0803    0.1875 O   0  0  0  0  0  0  0  0  0  0  0  0
    1.2644    0.6881    0.4868 C   0  0  0  0  0  0  0  0  0  0  0  0
    0.2719    1.6275   -0.0847 C   0  0  0  0  0  0  0  0  0  0  0  0
   -1.0466    1.4864   -0.0693 C   0  0  0  0  0  0  0  0  0  0  0  0
   -1.8423    0.2582   -0.0534 C   0  0  0  0  0  0  0  0  0  0  0  0
   -1.0531   -0.9857   -0.2703 C   0  0  0  0  0  0  0  0  0  0  0  0
    0.1046   -0.7569   -1.2013 C   0  0  0  0  0  0  0  0  0  0  0  0
    1.0398   -0.7154   -0.0023 C   0  0  0  0  0  0  0  0  0  0  0  0
   -0.1035   -1.3346    0.8110 C   0  0  0  0  0  0  0  0  0  0  0  0
    3.1813    0.5119    0.7317 H   0  0  0  0  0  0  0  0  0  0  0  0
    1.1931    0.6489    1.6103 H   0  0  0  0  0  0  0  0  0  0  0  0
    0.6732    2.5228   -0.5648 H   0  0  0  0  0  0  0  0  0  0  0  0
   -1.6211    2.4044   -0.0683 H   0  0  0  0  0  0  0  0  0  0  0  0
   -2.4403    0.1897    0.8851 H   0  0  0  0  0  0  0  0  0  0  0  0
   -2.5900    0.3307   -0.8842 H   0  0  0  0  0  0  0  0  0  0  0  0
   -1.7048   -1.8278   -0.5659 H   0  0  0  0  0  0  0  0  0  0  0  0
    0.0487    0.1753   -1.7748 H   0  0  0  0  0  0  0  0  0  0  0  0
    0.3366   -1.6642   -1.8084 H   0  0  0  0  0  0  0  0  0  0  0  0
    1.9269   -1.3582   -0.0881 H   0  0  0  0  0  0  0  0  0  0  0  0
    0.0265   -2.4314    0.9347 H   0  0  0  0  0  0  0  0  0  0  0  0
   -0.2288   -0.8501    1.7887 H   0  0  0  0  0  0  0  0  0  0  0  0
  1  2  1  0
  2  3  1  0
  3  4  2  0
  4  5  1  0
  5  6  1  0
  6  7  1  0
  7  8  1  0
  8  9  1  0
  8  2  1  0
  9  6  1  0
  1 10  1  0
  2 11  1  0
  3 12  1  0
  4 13  1  0
  5 14  1  0
  5 15  1  0
  6 16  1  0
  7 17  1  0
  7 18  1  0
  8 19  1  0
  9 20  1  0
  9 21  1  0
M  END
