
     RDKit          3D

 19 20  0  0  0  0  0  0  0  0999 V2000
    2.8959    1.0305    0.1495 O   0  0  0  0  0  0  0  0  0  0  0  0
    1.5781    0.6408    0.3847 C   0  0  0  0  0  0  0  0  0  0  0  0
    1.4013   -0.8555    0.4491 C   0  0  0  0  0  0  0  0  0  0  0  0
    0.8759   -0.0335   -0.7284 C   0  0  0  0  0  0  0  0  0  0  0  0
   -0.5786    0.0012   -0.9297 C   0  0  0  0  0  0  0  0  0  0  0  0
   -1.4649   -0.5079    0.1749 C   0  0  0  0  0  0  0  0  0  0  0  0
   -2.4713   -1.3882   -0.2360 O   0  0  0  0  0  0  0  0  0  0  0  0
   -1.5235    0.9228   -0.2703 C   0  0  0  0  0  0  0  0  0  0  0  0
   -1.1745    1.8521    0.6737 O   0  0  0  0  0  0  0  0  0  0  0  0
    3.2911    0.3856   -0.5009 H   0  0  0  0  0  0  0  0  0  0  0  0
    1.0310    1.2648    1.1029 H   0  0  0  0  0  0  0  0  0  0  0  0
    2.2847   -1.5093    0.2483 H   0  0  0  0  0  0  0  0  0  0  0  0
    0.7691   -1.1972    1.2496 H   0  0  0  0  0  0  0  0  0  0  0  0
    1.4909   -0.1620   -1.6705 H   0  0  0  0  0  0  0  0  0  0  0  0
   -0.8835   -0.3019   -1.9898 H   0  0  0  0  0  0  0  0  0  0  0  0
   -1.1234   -0.7172    1.1834 H   0  0  0  0  0  0  0  0  0  0  0  0
   -2.1774   -2.2969    0.0500 H   0  0  0  0  0  0  0  0  0  0  0  0
   -2.4676    1.1681   -0.8183 H   0  0  0  0  0  0  0  0  0  0  0  0
   -1.7535    1.7038    1.4779 H   0  0  0  0  0  0  0  0  0  0  0  0
  1  2  1  0
  2  3  1  0
  3  4  1  0
  4  5  1  0
  5  6  1  0
  6  7  1  0
  6  8  1  0
  8  9  1  0
  4  2  1  0
  8  5  1  0
  1 10  1  0
  2 11  1  0
  3 12  1  0
  3 13  1  0
  4 14  1  0
  5 15  1  0
  6 16  1  0
  7 17  1  0
  8 18  1  0
  9 19  1  0
M  END
