
     RDKit          3D

 19 20  0  0  0  0  0  0  0  0999 V2000
   -2.2708    0.6687   -0.2646 O   0  0  0  0  0  0  0  0  0  0  0  0
   -1.0608    0.3519    0.3964 C   0  0  0  0  0  0  0  0  0  0  0  0
   -0.3290    1.6351    0.6004 C   0  0  0  0  0  0  0  0  0  0  0  0
    0.9833    1.5584    0.8581 O   0  0  0  0  0  0  0  0  0  0  0  0
    1.7466    0.6040    0.3242 C   0  0  0  0  0  0  0  0  0  0  0  0
    1.1154   -0.4647   -0.4701 C   0  0  0  0  0  0  0  0  0  0  0  0
    0.6059   -1.6518    0.3833 C   0  0  0  0  0  0  0  0  0  0  0  0
   -0.3070   -0.6924   -0.3314 C   0  0  0  0  0  0  0  0  0  0  0  0
   -1.0030   -1.2880   -1.3950 O   0  0  0  0  0  0  0  0  0  0  0  0
   -3.0467    0.5845    0.3325 H   0  0  0  0  0  0  0  0  0  0  0  0
   -1.3573   -0.0643    1.3951 H   0  0  0  0  0  0  0  0  0  0  0  0
   -0.5219    2.3421   -0.2564 H   0  0  0  0  0  0  0  0  0  0  0  0
   -0.8299    2.1462    1.4777 H   0  0  0  0  0  0  0  0  0  0  0  0
    2.3437    0.1145    1.1504 H   0  0  0  0  0  0  0  0  0  0  0  0
    2.5439    1.0854   -0.3174 H   0  0  0  0  0  0  0  0  0  0  0  0
    1.5697   -0.7453   -1.4662 H   0  0  0  0  0  0  0  0  0  0  0  0
    0.8039   -2.6441   -0.0554 H   0  0  0  0  0  0  0  0  0  0  0  0
    0.6145   -1.5497    1.4668 H   0  0  0  0  0  0  0  0  0  0  0  0
   -1.6007   -1.9905   -0.9907 H   0  0  0  0  0  0  0  0  0  0  0  0
  1  2  1  0
  2  3  1  0
  3  4  1  0
  4  5  1  0
  5  6  1  0
  6  7  1  0
  7  8  1  0
  8  9  1  0
  8  2  1  0
  8  6  1  0
  1 10  1  0
  2 11  1  0
  3 12  1  0
  3 13  1  0
  5 14  1  0
  5 15  1  0
  6 16  1  0
  7 17  1  0
  7 18  1  0
  9 19  1  0
M  END
