
     RDKit          3D

 19 20  0  0  0  0  0  0  0  0999 V2000
   -0.1988    1.5437   -1.0246 O   0  0  0  0  0  0  0  0  0  0  0  0
   -0.0803    0.9848    0.2621 C   0  0  0  0  0  0  0  0  0  0  0  0
    1.4121    0.6963    0.4803 C   0  0  0  0  0  0  0  0  0  0  0  0
    1.7680   -0.2277   -0.6926 C   0  0  0  0  0  0  0  0  0  0  0  0
    1.1951   -1.4336   -0.4441 O   0  0  0  0  0  0  0  0  0  0  0  0
   -0.1470   -1.4692   -0.2786 C   0  0  0  0  0  0  0  0  0  0  0  0
   -0.7864   -0.3171    0.3867 C   0  0  0  0  0  0  0  0  0  0  0  0
   -2.2672   -0.3454    0.5291 C   0  0  0  0  0  0  0  0  0  0  0  0
   -1.4419   -0.5083    1.6307 O   0  0  0  0  0  0  0  0  0  0  0  0
   -0.1418    2.5202   -1.0167 H   0  0  0  0  0  0  0  0  0  0  0  0
   -0.4170    1.7057    1.0126 H   0  0  0  0  0  0  0  0  0  0  0  0
    2.0135    1.6004    0.4971 H   0  0  0  0  0  0  0  0  0  0  0  0
    1.4633    0.0702    1.3833 H   0  0  0  0  0  0  0  0  0  0  0  0
    1.4168    0.2560   -1.6448 H   0  0  0  0  0  0  0  0  0  0  0  0
    2.8619   -0.3575   -0.7750 H   0  0  0  0  0  0  0  0  0  0  0  0
   -0.6593   -1.6755   -1.2643 H   0  0  0  0  0  0  0  0  0  0  0  0
   -0.3853   -2.3902    0.3336 H   0  0  0  0  0  0  0  0  0  0  0  0
   -2.8077    0.6242    0.4019 H   0  0  0  0  0  0  0  0  0  0  0  0
   -2.7979   -1.2770    0.2233 H   0  0  0  0  0  0  0  0  0  0  0  0
  1  2  1  0
  2  3  1  0
  3  4  1  0
  4  5  1  0
  5  6  1  0
  6  7  1  0
  7  8  1  0
  8  9  1  0
  7  2  1  0
  9  7  1  0
  1 10  1  0
  2 11  1  0
  3 12  1  0
  3 13  1  0
  4 14  1  0
  4 15  1  0
  6 16  1  0
  6 17  1  0
  8 18  1  0
  8 19  1  0
M  END
