
     RDKit          3D

 19 21  0  0  0  0  0  0  0  0999 V2000
    2.5800   -0.1429   -1.3841 O   0  0  0  0  0  0  0  0  0  0  0  0
    1.9659    0.1434   -0.1676 C   0  0  0  0  0  0  0  0  0  0  0  0
    1.5448   -1.0294    0.7206 C   0  0  0  0  0  0  0  0  0  0  0  0
    0.5801   -0.1424    0.1160 C   0  0  0  0  0  0  0  0  0  0  0  0
   -0.4545   -0.5254   -0.8789 C   0  0  0  0  0  0  0  0  0  0  0  0
   -1.4304    0.3277   -0.1469 C   0  0  0  0  0  0  0  0  0  0  0  0
   -2.7647    0.1490    0.1077 C   0  0  0  0  0  0  0  0  0  0  0  0
   -2.2383    1.2350   -0.7694 O   0  0  0  0  0  0  0  0  0  0  0  0
   -0.3703    0.7407    0.8295 C   0  0  0  0  0  0  0  0  0  0  0  0
    3.0087    0.6693   -1.7046 H   0  0  0  0  0  0  0  0  0  0  0  0
    2.4417    0.9822    0.4110 H   0  0  0  0  0  0  0  0  0  0  0  0
    1.7143   -0.9322    1.8212 H   0  0  0  0  0  0  0  0  0  0  0  0
    1.7232   -2.0133    0.2435 H   0  0  0  0  0  0  0  0  0  0  0  0
   -0.6866   -1.6102   -0.8085 H   0  0  0  0  0  0  0  0  0  0  0  0
   -0.2475   -0.2490   -1.9317 H   0  0  0  0  0  0  0  0  0  0  0  0
   -3.4266   -0.5114   -0.4973 H   0  0  0  0  0  0  0  0  0  0  0  0
   -3.2798    0.5456    1.0037 H   0  0  0  0  0  0  0  0  0  0  0  0
   -0.0823    1.8216    0.6807 H   0  0  0  0  0  0  0  0  0  0  0  0
   -0.5778    0.5420    1.8871 H   0  0  0  0  0  0  0  0  0  0  0  0
  1  2  1  0
  2  3  1  0
  3  4  1  0
  4  5  1  0
  5  6  1  0
  6  7  1  0
  7  8  1  0
  6  9  1  0
  4  2  1  0
  8  6  1  0
  9  4  1  0
  1 10  1  0
  2 11  1  0
  3 12  1  0
  3 13  1  0
  5 14  1  0
  5 15  1  0
  7 16  1  0
  7 17  1  0
  9 18  1  0
  9 19  1  0
M  END
