
     RDKit          3D

 18 19  0  0  0  0  0  0  0  0999 V2000
   -1.6218   -1.1722   -1.0212 O   0  0  0  0  0  0  0  0  0  0  0  0
   -1.2430   -0.2675   -0.0580 C   0  0  0  0  0  0  0  0  0  0  0  0
   -1.3510    1.2027   -0.4776 C   0  0  0  0  0  0  0  0  0  0  0  0
    0.0584    1.4335    0.0863 C   0  0  0  0  0  0  0  0  0  0  0  0
    0.1865   -0.0381    0.1820 C   0  0  0  0  0  0  0  0  0  0  0  0
    0.8672   -0.7632    1.2438 C   0  0  0  0  0  0  0  0  0  0  0  0
    1.3136   -0.8211   -0.2286 C   0  0  0  0  0  0  0  0  0  0  0  0
    2.5259   -0.1350   -0.4607 O   0  0  0  0  0  0  0  0  0  0  0  0
   -2.4464   -1.6552   -0.7176 H   0  0  0  0  0  0  0  0  0  0  0  0
   -1.7945   -0.4293    0.9138 H   0  0  0  0  0  0  0  0  0  0  0  0
   -1.3635    1.3054   -1.5861 H   0  0  0  0  0  0  0  0  0  0  0  0
   -2.1274    1.7729    0.0418 H   0  0  0  0  0  0  0  0  0  0  0  0
    0.7426    1.8780   -0.6740 H   0  0  0  0  0  0  0  0  0  0  0  0
    0.0724    1.9082    1.0812 H   0  0  0  0  0  0  0  0  0  0  0  0
    1.4832   -0.1808    1.9478 H   0  0  0  0  0  0  0  0  0  0  0  0
    0.3851   -1.6818    1.6397 H   0  0  0  0  0  0  0  0  0  0  0  0
    1.2808   -1.8135   -0.6998 H   0  0  0  0  0  0  0  0  0  0  0  0
    3.0318   -0.5431   -1.2128 H   0  0  0  0  0  0  0  0  0  0  0  0
  1  2  1  0
  2  3  1  0
  3  4  1  0
  4  5  1  0
  5  6  1  0
  6  7  1  0
  7  8  1  0
  5  2  1  0
  7  5  1  0
  1  9  1  0
  2 10  1  0
  3 11  1  0
  3 12  1  0
  4 13  1  0
  4 14  1  0
  6 15  1  0
  6 16  1  0
  7 17  1  0
  8 18  1  0
M  END
