
     RDKit          3D

 21 23  0  0  0  0  0  0  0  0999 V2000
   -3.2844   -0.2217   -0.2323 O   0  0  0  0  0  0  0  0  0  0  0  0
   -2.0397   -0.3971    0.3759 C   0  0  0  0  0  0  0  0  0  0  0  0
   -1.5115    0.6371    1.3041 C   0  0  0  0  0  0  0  0  0  0  0  0
   -0.9577    0.5783   -0.0615 C   0  0  0  0  0  0  0  0  0  0  0  0
    0.3461   -0.0047   -0.4297 C   0  0  0  0  0  0  0  0  0  0  0  0
    1.4517    0.9597   -0.8434 C   0  0  0  0  0  0  0  0  0  0  0  0
    2.4304    0.1408   -0.0665 C   0  0  0  0  0  0  0  0  0  0  0  0
    1.2871   -0.6761    0.4573 C   0  0  0  0  0  0  0  0  0  0  0  0
    0.5387   -1.4464   -0.5613 C   0  0  0  0  0  0  0  0  0  0  0  0
   -3.0772    0.1053   -1.1626 H   0  0  0  0  0  0  0  0  0  0  0  0
   -1.8234   -1.4178    0.6699 H   0  0  0  0  0  0  0  0  0  0  0  0
   -0.8808    0.3174    2.1796 H   0  0  0  0  0  0  0  0  0  0  0  0
   -2.1964    1.4535    1.5720 H   0  0  0  0  0  0  0  0  0  0  0  0
   -1.3117    1.4135   -0.7456 H   0  0  0  0  0  0  0  0  0  0  0  0
    1.2760    1.9356   -0.3343 H   0  0  0  0  0  0  0  0  0  0  0  0
    1.6167    1.0283   -1.9298 H   0  0  0  0  0  0  0  0  0  0  0  0
    3.1402   -0.4504   -0.7001 H   0  0  0  0  0  0  0  0  0  0  0  0
    3.0251    0.6774    0.6971 H   0  0  0  0  0  0  0  0  0  0  0  0
    1.0490   -0.7071    1.5291 H   0  0  0  0  0  0  0  0  0  0  0  0
   -0.2542   -2.1273   -0.2869 H   0  0  0  0  0  0  0  0  0  0  0  0
    1.1763   -1.7984   -1.4310 H   0  0  0  0  0  0  0  0  0  0  0  0
  1  2  1  0
  2  3  1  0
  3  4  1  0
  4  5  1  0
  5  6  1  0
  6  7  1  0
  7  8  1  0
  8  9  1  0
  4  2  1  0
  8  5  1  0
  9  5  1  0
  1 10  1  0
  2 11  1  0
  3 12  1  0
  3 13  1  0
  4 14  1  0
  6 15  1  0
  6 16  1  0
  7 17  1  0
  7 18  1  0
  8 19  1  0
  9 20  1  0
  9 21  1  0
M  END
