
     RDKit          3D

 18 19  0  0  0  0  0  0  0  0999 V2000
   -1.2989   -1.4072    0.5964 O   0  0  0  0  0  0  0  0  0  0  0  0
   -0.3559   -1.0184   -0.3622 C   0  0  0  0  0  0  0  0  0  0  0  0
    1.0077   -1.1286    0.2494 C   0  0  0  0  0  0  0  0  0  0  0  0
    1.5650    0.2574    0.3870 C   0  0  0  0  0  0  0  0  0  0  0  0
    0.6113    1.2037   -0.2874 C   0  0  0  0  0  0  0  0  0  0  0  0
   -0.2170    1.8909    0.6102 O   0  0  0  0  0  0  0  0  0  0  0  0
   -1.3738    1.2137    0.2438 C   0  0  0  0  0  0  0  0  0  0  0  0
   -0.5647    0.4165   -0.7447 C   0  0  0  0  0  0  0  0  0  0  0  0
   -1.9621   -2.0456    0.2438 H   0  0  0  0  0  0  0  0  0  0  0  0
   -0.4279   -1.6475   -1.2868 H   0  0  0  0  0  0  0  0  0  0  0  0
    1.6449   -1.7515   -0.3978 H   0  0  0  0  0  0  0  0  0  0  0  0
    0.9660   -1.6351    1.2418 H   0  0  0  0  0  0  0  0  0  0  0  0
    2.5948    0.3081   -0.0262 H   0  0  0  0  0  0  0  0  0  0  0  0
    1.5985    0.5345    1.4596 H   0  0  0  0  0  0  0  0  0  0  0  0
    1.1164    1.8506   -1.0063 H   0  0  0  0  0  0  0  0  0  0  0  0
   -1.7859    0.5461    1.0278 H   0  0  0  0  0  0  0  0  0  0  0  0
   -2.1815    1.8303   -0.1874 H   0  0  0  0  0  0  0  0  0  0  0  0
   -0.9370    0.5819   -1.7612 H   0  0  0  0  0  0  0  0  0  0  0  0
  1  2  1  0
  2  3  1  0
  3  4  1  0
  4  5  1  0
  5  6  1  0
  6  7  1  0
  7  8  1  0
  8  2  1  0
  8  5  1  0
  1  9  1  0
  2 10  1  0
  3 11  1  0
  3 12  1  0
  4 13  1  0
  4 14  1  0
  5 15  1  0
  7 16  1  0
  7 17  1  0
  8 18  1  0
M  END
