
     RDKit          3D

 18 19  0  0  0  0  0  0  0  0999 V2000
    2.5492   -0.0061    0.2145 O   0  0  0  0  0  0  0  0  0  0  0  0
    1.3356    0.0414   -0.5069 C   0  0  0  0  0  0  0  0  0  0  0  0
    0.6285   -1.2947   -0.3171 C   0  0  0  0  0  0  0  0  0  0  0  0
   -0.2915   -0.6030    0.6499 C   0  0  0  0  0  0  0  0  0  0  0  0
   -1.6845   -0.5364    0.1049 C   0  0  0  0  0  0  0  0  0  0  0  0
   -1.6463    0.3946   -0.9214 O   0  0  0  0  0  0  0  0  0  0  0  0
   -0.8221    1.3979   -0.4452 C   0  0  0  0  0  0  0  0  0  0  0  0
    0.3019    0.7473    0.3065 C   0  0  0  0  0  0  0  0  0  0  0  0
    2.4938    0.4479    1.0731 H   0  0  0  0  0  0  0  0  0  0  0  0
    1.4642    0.3620   -1.5473 H   0  0  0  0  0  0  0  0  0  0  0  0
    0.1504   -1.6778   -1.2490 H   0  0  0  0  0  0  0  0  0  0  0  0
    1.2349   -2.0907    0.1266 H   0  0  0  0  0  0  0  0  0  0  0  0
   -0.1636   -0.8127    1.7071 H   0  0  0  0  0  0  0  0  0  0  0  0
   -2.3862   -0.2918    0.9090 H   0  0  0  0  0  0  0  0  0  0  0  0
   -1.8923   -1.5270   -0.3787 H   0  0  0  0  0  0  0  0  0  0  0  0
   -1.4203    1.9746    0.3164 H   0  0  0  0  0  0  0  0  0  0  0  0
   -0.5085    2.1267   -1.1953 H   0  0  0  0  0  0  0  0  0  0  0  0
    0.6569    1.3478    1.1529 H   0  0  0  0  0  0  0  0  0  0  0  0
  1  2  1  0
  2  3  1  0
  3  4  1  0
  4  5  1  0
  5  6  1  0
  6  7  1  0
  7  8  1  0
  8  2  1  0
  8  4  1  0
  1  9  1  0
  2 10  1  0
  3 11  1  0
  3 12  1  0
  4 13  1  0
  5 14  1  0
  5 15  1  0
  7 16  1  0
  7 17  1  0
  8 18  1  0
M  END
