
     RDKit          3D

 17 19  0  0  0  0  0  0  0  0999 V2000
   -0.8882    1.9386    0.3338 O   0  0  0  0  0  0  0  0  0  0  0  0
   -0.9955    0.6794   -0.2217 C   0  0  0  0  0  0  0  0  0  0  0  0
   -1.1099   -0.4189    0.8080 C   0  0  0  0  0  0  0  0  0  0  0  0
   -1.4876   -1.6578    0.3039 O   0  0  0  0  0  0  0  0  0  0  0  0
   -0.1365   -1.3542    0.5847 C   0  0  0  0  0  0  0  0  0  0  0  0
    0.6349   -0.9817   -0.6649 C   0  0  0  0  0  0  0  0  0  0  0  0
    1.5246    0.2639   -0.6080 C   0  0  0  0  0  0  0  0  0  0  0  0
    1.9228    0.5986    0.6557 O   0  0  0  0  0  0  0  0  0  0  0  0
    0.1635    0.3316   -1.1132 C   0  0  0  0  0  0  0  0  0  0  0  0
   -0.9471    1.9651    1.3100 H   0  0  0  0  0  0  0  0  0  0  0  0
   -1.9375    0.6322   -0.8312 H   0  0  0  0  0  0  0  0  0  0  0  0
   -1.6661   -0.1198    1.7105 H   0  0  0  0  0  0  0  0  0  0  0  0
    0.3752   -1.9318    1.3775 H   0  0  0  0  0  0  0  0  0  0  0  0
    0.9132   -1.8035   -1.3345 H   0  0  0  0  0  0  0  0  0  0  0  0
    2.3449    0.2306   -1.3582 H   0  0  0  0  0  0  0  0  0  0  0  0
    1.2633    1.0240    1.2239 H   0  0  0  0  0  0  0  0  0  0  0  0
    0.0262    0.6036   -2.1762 H   0  0  0  0  0  0  0  0  0  0  0  0
  1  2  1  0
  2  3  1  0
  3  4  1  0
  4  5  1  0
  5  6  1  0
  6  7  1  0
  7  8  1  0
  7  9  1  0
  9  2  1  0
  5  3  1  0
  9  6  1  0
  1 10  1  0
  2 11  1  0
  3 12  1  0
  5 13  1  0
  6 14  1  0
  7 15  1  0
  8 16  1  0
  9 17  1  0
M  END
