
     RDKit          3D

 19 20  0  0  0  0  0  0  0  0999 V2000
   -1.8493   -1.1348   -0.9361 O   0  0  0  0  0  0  0  0  0  0  0  0
   -1.2561   -0.6012    0.2071 C   0  0  0  0  0  0  0  0  0  0  0  0
   -1.4865    0.9123    0.1935 C   0  0  0  0  0  0  0  0  0  0  0  0
   -0.5253    1.4596   -0.6056 O   0  0  0  0  0  0  0  0  0  0  0  0
    0.5123    0.5946   -0.7640 C   0  0  0  0  0  0  0  0  0  0  0  0
    1.7288    0.8189    0.1147 C   0  0  0  0  0  0  0  0  0  0  0  0
    1.0683   -0.1141    1.1361 C   0  0  0  0  0  0  0  0  0  0  0  0
    0.2353   -0.6560    0.0221 C   0  0  0  0  0  0  0  0  0  0  0  0
    0.7564   -1.7809   -0.5470 O   0  0  0  0  0  0  0  0  0  0  0  0
   -1.3888   -0.7325   -1.7056 H   0  0  0  0  0  0  0  0  0  0  0  0
   -1.6199   -1.0703    1.1199 H   0  0  0  0  0  0  0  0  0  0  0  0
   -1.3509    1.2793    1.2253 H   0  0  0  0  0  0  0  0  0  0  0  0
   -2.5199    1.0747   -0.1415 H   0  0  0  0  0  0  0  0  0  0  0  0
    0.7518    0.3669   -1.8290 H   0  0  0  0  0  0  0  0  0  0  0  0
    2.6025    0.3133   -0.3346 H   0  0  0  0  0  0  0  0  0  0  0  0
    1.8620    1.8289    0.4940 H   0  0  0  0  0  0  0  0  0  0  0  0
    1.7943   -0.8360    1.5916 H   0  0  0  0  0  0  0  0  0  0  0  0
    0.5609    0.4342    1.9348 H   0  0  0  0  0  0  0  0  0  0  0  0
    0.1237   -2.1567   -1.1756 H   0  0  0  0  0  0  0  0  0  0  0  0
  1  2  1  0
  2  3  1  0
  3  4  1  0
  4  5  1  0
  5  6  1  0
  6  7  1  0
  7  8  1  0
  8  9  1  0
  8  2  1  0
  8  5  1  0
  1 10  1  0
  2 11  1  0
  3 12  1  0
  3 13  1  0
  5 14  1  0
  6 15  1  0
  6 16  1  0
  7 17  1  0
  7 18  1  0
  9 19  1  0
M  END
