
     RDKit          3D

 19 20  0  0  0  0  0  0  0  0999 V2000
   -0.8135   -0.2125    1.7399 O   0  0  0  0  0  0  0  0  0  0  0  0
   -1.0864    0.6845    0.7179 C   0  0  0  0  0  0  0  0  0  0  0  0
   -2.0424   -0.0352   -0.2557 C   0  0  0  0  0  0  0  0  0  0  0  0
   -1.0984   -1.1329   -0.6919 C   0  0  0  0  0  0  0  0  0  0  0  0
    0.1367   -0.7058   -0.6463 C   0  0  0  0  0  0  0  0  0  0  0  0
    1.5516   -0.9795   -0.8451 C   0  0  0  0  0  0  0  0  0  0  0  0
    2.2821   -0.0735   -0.1943 C   0  0  0  0  0  0  0  0  0  0  0  0
    1.4296    0.9134    0.5166 C   0  0  0  0  0  0  0  0  0  0  0  0
    0.1140    0.7343   -0.1868 C   0  0  0  0  0  0  0  0  0  0  0  0
   -0.9844   -1.1474    1.4403 H   0  0  0  0  0  0  0  0  0  0  0  0
   -1.4664    1.6446    1.0349 H   0  0  0  0  0  0  0  0  0  0  0  0
   -2.2390    0.5771   -1.1505 H   0  0  0  0  0  0  0  0  0  0  0  0
   -2.9257   -0.4222    0.2458 H   0  0  0  0  0  0  0  0  0  0  0  0
   -1.3666   -2.1418   -1.0049 H   0  0  0  0  0  0  0  0  0  0  0  0
    1.9844   -1.7827   -1.4233 H   0  0  0  0  0  0  0  0  0  0  0  0
    3.3587   -0.0424   -0.1733 H   0  0  0  0  0  0  0  0  0  0  0  0
    1.8286    1.9240    0.2946 H   0  0  0  0  0  0  0  0  0  0  0  0
    1.3950    0.7761    1.5954 H   0  0  0  0  0  0  0  0  0  0  0  0
   -0.0581    1.4218   -1.0130 H   0  0  0  0  0  0  0  0  0  0  0  0
  1  2  1  0
  2  3  1  0
  3  4  1  0
  4  5  2  0
  5  6  1  0
  6  7  2  0
  7  8  1  0
  8  9  1  0
  9  2  1  0
  9  5  1  0
  1 10  1  0
  2 11  1  0
  3 12  1  0
  3 13  1  0
  4 14  1  0
  6 15  1  0
  7 16  1  0
  8 17  1  0
  8 18  1  0
  9 19  1  0
M  END
