
     RDKit          3D

 23 24  0  0  0  0  0  0  0  0999 V2000
    2.1526   -0.4537   -1.2012 O   0  0  0  0  0  0  0  0  0  0  0  0
    1.5206   -0.3267    0.0578 C   0  0  0  0  0  0  0  0  0  0  0  0
    1.2483    1.1120    0.2976 C   0  0  0  0  0  0  0  0  0  0  0  0
   -0.0794    1.6176   -0.0811 C   0  0  0  0  0  0  0  0  0  0  0  0
   -1.0936    0.6155   -0.4953 C   0  0  0  0  0  0  0  0  0  0  0  0
   -1.7162   -0.0212    0.7356 C   0  0  0  0  0  0  0  0  0  0  0  0
   -0.6291   -0.9845    1.1641 C   0  0  0  0  0  0  0  0  0  0  0  0
    0.2774   -1.1823   -0.0144 C   0  0  0  0  0  0  0  0  0  0  0  0
   -0.5262   -0.5943   -1.1846 C   0  0  0  0  0  0  0  0  0  0  0  0
    1.9680   -1.3715   -1.5771 H   0  0  0  0  0  0  0  0  0  0  0  0
    2.2494   -0.7270    0.7987 H   0  0  0  0  0  0  0  0  0  0  0  0
    1.4777    1.3194    1.3857 H   0  0  0  0  0  0  0  0  0  0  0  0
    2.0260    1.7243   -0.2502 H   0  0  0  0  0  0  0  0  0  0  0  0
   -0.0275    2.3948   -0.9009 H   0  0  0  0  0  0  0  0  0  0  0  0
   -0.5144    2.1918    0.7907 H   0  0  0  0  0  0  0  0  0  0  0  0
   -1.8592    1.0500   -1.1642 H   0  0  0  0  0  0  0  0  0  0  0  0
   -1.9707    0.7030    1.5080 H   0  0  0  0  0  0  0  0  0  0  0  0
   -2.6139   -0.5868    0.3587 H   0  0  0  0  0  0  0  0  0  0  0  0
   -1.1039   -1.9827    1.3795 H   0  0  0  0  0  0  0  0  0  0  0  0
   -0.1107   -0.6508    2.0799 H   0  0  0  0  0  0  0  0  0  0  0  0
    0.5312   -2.2084   -0.2393 H   0  0  0  0  0  0  0  0  0  0  0  0
    0.1375   -0.3601   -2.0250 H   0  0  0  0  0  0  0  0  0  0  0  0
   -1.3441   -1.2783   -1.4229 H   0  0  0  0  0  0  0  0  0  0  0  0
  1  2  1  0
  2  3  1  0
  3  4  1  0
  4  5  1  0
  5  6  1  0
  6  7  1  0
  7  8  1  0
  8  9  1  0
  8  2  1  0
  9  5  1  0
  1 10  1  0
  2 11  1  0
  3 12  1  0
  3 13  1  0
  4 14  1  0
  4 15  1  0
  5 16  1  0
  6 17  1  0
  6 18  1  0
  7 19  1  0
  7 20  1  0
  8 21  1  0
  9 22  1  0
  9 23  1  0
M  END
