
     RDKit          3D

 21 22  0  0  0  0  0  0  0  0999 V2000
    3.1261    0.4655   -0.1273 O   0  0  0  0  0  0  0  0  0  0  0  0
    1.8566    0.3630   -0.6316 C   0  0  0  0  0  0  0  0  0  0  0  0
    0.7911    1.1685    0.1275 C   0  0  0  0  0  0  0  0  0  0  0  0
   -0.0827   -0.0346    0.0256 C   0  0  0  0  0  0  0  0  0  0  0  0
   -1.0124   -0.3291    1.1363 C   0  0  0  0  0  0  0  0  0  0  0  0
   -2.3640   -0.3732    0.4227 C   0  0  0  0  0  0  0  0  0  0  0  0
   -1.9770   -0.8863   -0.8368 O   0  0  0  0  0  0  0  0  0  0  0  0
   -0.9783    0.0369   -1.1805 C   0  0  0  0  0  0  0  0  0  0  0  0
    1.1423   -0.8891   -0.1084 C   0  0  0  0  0  0  0  0  0  0  0  0
    3.2293   -0.0492    0.7108 H   0  0  0  0  0  0  0  0  0  0  0  0
    1.7279    0.4009   -1.7214 H   0  0  0  0  0  0  0  0  0  0  0  0
    0.4415    2.0333   -0.4978 H   0  0  0  0  0  0  0  0  0  0  0  0
    1.0931    1.4933    1.1244 H   0  0  0  0  0  0  0  0  0  0  0  0
   -0.9940    0.3840    1.9582 H   0  0  0  0  0  0  0  0  0  0  0  0
   -0.8297   -1.3897    1.4738 H   0  0  0  0  0  0  0  0  0  0  0  0
   -3.0902   -1.0020    0.9283 H   0  0  0  0  0  0  0  0  0  0  0  0
   -2.6778    0.6626    0.2372 H   0  0  0  0  0  0  0  0  0  0  0  0
   -1.4760    1.0429   -1.1481 H   0  0  0  0  0  0  0  0  0  0  0  0
   -0.4875   -0.1806   -2.1233 H   0  0  0  0  0  0  0  0  0  0  0  0
    1.0679   -1.7109   -0.8174 H   0  0  0  0  0  0  0  0  0  0  0  0
    1.4938   -1.2061    0.8966 H   0  0  0  0  0  0  0  0  0  0  0  0
  1  2  1  0
  2  3  1  0
  3  4  1  0
  4  5  1  0
  5  6  1  0
  6  7  1  0
  7  8  1  0
  4  9  1  0
  9  2  1  0
  8  4  1  0
  1 10  1  0
  2 11  1  0
  3 12  1  0
  3 13  1  0
  5 14  1  0
  5 15  1  0
  6 16  1  0
  6 17  1  0
  8 18  1  0
  8 19  1  0
  9 20  1  0
  9 21  1  0
M  END
