
     RDKit          3D

 17 17  0  0  0  0  0  0  0  0999 V2000
    2.5399    0.0855    0.2927 O   0  0  0  0  0  0  0  0  0  0  0  0
    1.1799    0.0292    0.5180 C   0  0  0  0  0  0  0  0  0  0  0  0
    0.4770    1.2926    0.1596 C   0  0  0  0  0  0  0  0  0  0  0  0
   -0.7537    1.3109   -0.2910 C   0  0  0  0  0  0  0  0  0  0  0  0
   -1.6063    0.1132   -0.5054 C   0  0  0  0  0  0  0  0  0  0  0  0
   -0.9274   -1.1028    0.0859 C   0  0  0  0  0  0  0  0  0  0  0  0
    0.5237   -1.0449   -0.3586 C   0  0  0  0  0  0  0  0  0  0  0  0
    2.9377    0.5835    1.0725 H   0  0  0  0  0  0  0  0  0  0  0  0
    0.9316   -0.2036    1.5785 H   0  0  0  0  0  0  0  0  0  0  0  0
    1.0253    2.2205    0.2848 H   0  0  0  0  0  0  0  0  0  0  0  0
   -1.1731    2.2979   -0.5236 H   0  0  0  0  0  0  0  0  0  0  0  0
   -2.5874    0.2100    0.0235 H   0  0  0  0  0  0  0  0  0  0  0  0
   -1.7958   -0.1010   -1.5713 H   0  0  0  0  0  0  0  0  0  0  0  0
   -1.0070   -1.0071    1.1990 H   0  0  0  0  0  0  0  0  0  0  0  0
   -1.3825   -2.0487   -0.2676 H   0  0  0  0  0  0  0  0  0  0  0  0
    0.5794   -0.6316   -1.4081 H   0  0  0  0  0  0  0  0  0  0  0  0
    1.0385   -2.0036   -0.2891 H   0  0  0  0  0  0  0  0  0  0  0  0
  1  2  1  0
  2  3  1  0
  3  4  2  0
  4  5  1  0
  5  6  1  0
  6  7  1  0
  7  2  1  0
  1  8  1  0
  2  9  1  0
  3 10  1  0
  4 11  1  0
  5 12  1  0
  5 13  1  0
  6 14  1  0
  6 15  1  0
  7 16  1  0
  7 17  1  0
M  END
