
     RDKit          3D

 19 21  0  0  0  0  0  0  0  0999 V2000
    1.8657   -1.1688    0.6812 O   0  0  0  0  0  0  0  0  0  0  0  0
    1.4256   -0.1480   -0.1651 C   0  0  0  0  0  0  0  0  0  0  0  0
    0.4675   -0.6938   -1.1993 C   0  0  0  0  0  0  0  0  0  0  0  0
   -0.8351    0.0631   -0.9825 C   0  0  0  0  0  0  0  0  0  0  0  0
   -1.6500   -0.7709   -0.0858 C   0  0  0  0  0  0  0  0  0  0  0  0
   -1.4916   -0.3595    1.1563 C   0  0  0  0  0  0  0  0  0  0  0  0
   -0.5782    0.7712    1.2469 C   0  0  0  0  0  0  0  0  0  0  0  0
    0.7226    0.9058    0.6086 C   0  0  0  0  0  0  0  0  0  0  0  0
   -0.4650    1.2513   -0.1940 C   0  0  0  0  0  0  0  0  0  0  0  0
    2.8603   -1.2688    0.6049 H   0  0  0  0  0  0  0  0  0  0  0  0
    2.3271    0.3144   -0.6632 H   0  0  0  0  0  0  0  0  0  0  0  0
    0.3395   -1.7773   -1.0055 H   0  0  0  0  0  0  0  0  0  0  0  0
    0.8680   -0.5306   -2.2329 H   0  0  0  0  0  0  0  0  0  0  0  0
   -1.3373    0.2874   -1.9462 H   0  0  0  0  0  0  0  0  0  0  0  0
   -2.3002   -1.6152   -0.3881 H   0  0  0  0  0  0  0  0  0  0  0  0
   -1.9888   -0.8103    2.0459 H   0  0  0  0  0  0  0  0  0  0  0  0
   -0.8508    1.5547    1.9929 H   0  0  0  0  0  0  0  0  0  0  0  0
    1.3809    1.7236    0.9704 H   0  0  0  0  0  0  0  0  0  0  0  0
   -0.7605    2.2720   -0.4446 H   0  0  0  0  0  0  0  0  0  0  0  0
  1  2  1  0
  2  3  1  0
  3  4  1  0
  4  5  1  0
  5  6  2  0
  6  7  1  0
  7  8  1  0
  8  9  1  0
  8  2  1  0
  9  4  1  0
  9  7  1  0
  1 10  1  0
  2 11  1  0
  3 12  1  0
  3 13  1  0
  4 14  1  0
  5 15  1  0
  6 16  1  0
  7 17  1  0
  8 18  1  0
  9 19  1  0
M  END
