
     RDKit          2D

 17 19  0  0  0  0  0  0  0  0999 V2000
   -3.1820   -2.1213    0.0000 O   0  0  0  0  0  0  0  0  0  0  0  0
   -2.1213   -1.0607    0.0000 C   0  0  0  0  0  0  0  0  0  0  0  0
   -1.0607    0.0000    0.0000 C   0  0  0  0  0  0  0  0  0  0  0  0
    0.0000    1.0607    0.0000 C   0  0  0  0  0  0  0  0  0  0  0  0
   -0.2381   -0.4825    0.0000 C   0  0  0  0  0  0  0  0  0  0  0  0
   -1.0607   -2.1213    0.0000 C   0  0  0  0  0  0  0  0  0  0  0  0
   -1.0607   -3.6213    0.0000 O   0  0  0  0  0  0  0  0  0  0  0  0
   -0.0000   -1.0607    0.0000 C   0  0  0  0  0  0  0  0  0  0  0  0
    1.0607    0.0000    0.0000 O   0  0  0  0  0  0  0  0  0  0  0  0
   -4.6309   -1.7331    0.0000 H   0  0  0  0  0  0  0  0  0  0  0  0
   -3.1820    0.0000    0.0000 H   0  0  0  0  0  0  0  0  0  0  0  0
   -2.1213    1.0607    0.0000 H   0  0  0  0  0  0  0  0  0  0  0  0
    0.0000    2.5607    0.0000 H   0  0  0  0  0  0  0  0  0  0  0  0
    1.9318   -0.1202    0.0000 H   0  0  0  0  0  0  0  0  0  0  0  0
    1.3463   -1.5741    0.0000 H   0  0  0  0  0  0  0  0  0  0  0  0
   -2.3597   -4.3713    0.0000 H   0  0  0  0  0  0  0  0  0  0  0  0
    0.9235   -2.2427    0.0000 H   0  0  0  0  0  0  0  0  0  0  0  0
  1  2  1  0
  2  3  1  0
  3  4  1  0
  4  5  1  0
  5  6  1  0
  6  7  1  0
  6  8  1  0
  8  9  1  0
  6  2  1  0
  8  3  1  0
  9  4  1  0
  1 10  1  0
  2 11  1  0
  3 12  1  0
  4 13  1  0
  5 14  1  0
  5 15  1  0
  7 16  1  0
  8 17  1  0
M  END
