
     RDKit          3D

 17 19  0  0  0  0  0  0  0  0999 V2000
   -1.9960    1.0357    0.7416 O   0  0  0  0  0  0  0  0  0  0  0  0
   -0.9762    0.6624   -0.1505 C   0  0  0  0  0  0  0  0  0  0  0  0
   -1.3431   -0.7113   -0.6800 C   0  0  0  0  0  0  0  0  0  0  0  0
   -0.2193   -1.4822   -0.5595 O   0  0  0  0  0  0  0  0  0  0  0  0
    0.5734   -0.9998    0.4367 C   0  0  0  0  0  0  0  0  0  0  0  0
    1.9129   -0.5434   -0.1587 C   0  0  0  0  0  0  0  0  0  0  0  0
    2.6767    0.1931    0.7137 O   0  0  0  0  0  0  0  0  0  0  0  0
    1.5697    0.7599   -0.0581 C   0  0  0  0  0  0  0  0  0  0  0  0
    0.2686    0.4685    0.6230 C   0  0  0  0  0  0  0  0  0  0  0  0
   -2.8478    1.2012    0.3074 H   0  0  0  0  0  0  0  0  0  0  0  0
   -0.9184    1.4047   -0.9412 H   0  0  0  0  0  0  0  0  0  0  0  0
   -1.6213   -0.6806   -1.7573 H   0  0  0  0  0  0  0  0  0  0  0  0
   -2.1468   -1.1921   -0.0614 H   0  0  0  0  0  0  0  0  0  0  0  0
    0.6447   -1.5417    1.3744 H   0  0  0  0  0  0  0  0  0  0  0  0
    2.3457   -1.1222   -0.9713 H   0  0  0  0  0  0  0  0  0  0  0  0
    1.8096    1.7043   -0.5065 H   0  0  0  0  0  0  0  0  0  0  0  0
    0.2677    0.8436    1.6477 H   0  0  0  0  0  0  0  0  0  0  0  0
  1  2  1  0
  2  3  1  0
  3  4  1  0
  4  5  1  0
  5  6  1  0
  6  7  1  0
  7  8  1  0
  8  9  1  0
  9  2  1  0
  9  5  1  0
  8  6  1  0
  1 10  1  0
  2 11  1  0
  3 12  1  0
  3 13  1  0
  5 14  1  0
  6 15  1  0
  8 16  1  0
  9 17  1  0
M  END
