
     RDKit          3D

 17 19  0  0  0  0  0  0  0  0999 V2000
   -0.6871   -1.6289   -1.0563 O   0  0  0  0  0  0  0  0  0  0  0  0
   -0.1340   -1.0847    0.0762 C   0  0  0  0  0  0  0  0  0  0  0  0
   -1.1446   -0.2376    0.8337 C   0  0  0  0  0  0  0  0  0  0  0  0
   -1.4029    0.9214   -0.0594 C   0  0  0  0  0  0  0  0  0  0  0  0
    0.0323    1.1821    0.3315 C   0  0  0  0  0  0  0  0  0  0  0  0
   -0.3100    0.6225    1.5858 O   0  0  0  0  0  0  0  0  0  0  0  0
    0.8306    0.0646   -0.2670 C   0  0  0  0  0  0  0  0  0  0  0  0
    2.1883   -0.0344   -0.2759 C   0  0  0  0  0  0  0  0  0  0  0  0
    1.4022    0.1335   -1.4895 O   0  0  0  0  0  0  0  0  0  0  0  0
   -1.6592   -1.8008   -0.9847 H   0  0  0  0  0  0  0  0  0  0  0  0
    0.4159   -1.7765    0.7130 H   0  0  0  0  0  0  0  0  0  0  0  0
   -1.9354   -0.7284    1.3478 H   0  0  0  0  0  0  0  0  0  0  0  0
   -2.0839    1.6795    0.3470 H   0  0  0  0  0  0  0  0  0  0  0  0
   -1.5357    0.7271   -1.1268 H   0  0  0  0  0  0  0  0  0  0  0  0
    0.4041    2.1785    0.3224 H   0  0  0  0  0  0  0  0  0  0  0  0
    2.8826    0.8035   -0.0528 H   0  0  0  0  0  0  0  0  0  0  0  0
    2.7370   -1.0215   -0.2453 H   0  0  0  0  0  0  0  0  0  0  0  0
  1  2  1  0
  2  3  1  0
  3  4  1  0
  4  5  1  0
  5  6  1  0
  5  7  1  0
  7  8  1  0
  8  9  1  0
  7  2  1  0
  6  3  1  0
  9  7  1  0
  1 10  1  0
  2 11  1  0
  3 12  1  0
  4 13  1  0
  4 14  1  0
  5 15  1  0
  8 16  1  0
  8 17  1  0
M  END
