
     RDKit          3D

 17 20  0  0  0  0  0  0  0  0999 V2000
    2.7886    0.5848   -0.0596 O   0  0  0  0  0  0  0  0  0  0  0  0
    1.5100    0.2113    0.3186 C   0  0  0  0  0  0  0  0  0  0  0  0
    0.6619   -0.6079   -0.5590 C   0  0  0  0  0  0  0  0  0  0  0  0
   -0.6434   -1.0973   -0.0219 C   0  0  0  0  0  0  0  0  0  0  0  0
   -1.7031   -0.1522   -0.4967 C   0  0  0  0  0  0  0  0  0  0  0  0
   -2.3352   -0.3690    0.7123 O   0  0  0  0  0  0  0  0  0  0  0  0
   -1.0124   -0.2295    1.1195 C   0  0  0  0  0  0  0  0  0  0  0  0
   -0.9393    0.9306    0.1820 C   0  0  0  0  0  0  0  0  0  0  0  0
    0.4163    0.9359   -0.4294 C   0  0  0  0  0  0  0  0  0  0  0  0
    3.3434   -0.1342   -0.4044 H   0  0  0  0  0  0  0  0  0  0  0  0
    1.3409    0.0993    1.4057 H   0  0  0  0  0  0  0  0  0  0  0  0
    1.0274   -0.9655   -1.5194 H   0  0  0  0  0  0  0  0  0  0  0  0
   -0.8490   -2.1503   -0.0005 H   0  0  0  0  0  0  0  0  0  0  0  0
   -2.1273   -0.1291   -1.4118 H   0  0  0  0  0  0  0  0  0  0  0  0
   -0.6781   -0.2650    2.0712 H   0  0  0  0  0  0  0  0  0  0  0  0
   -1.4235    1.8525    0.4373 H   0  0  0  0  0  0  0  0  0  0  0  0
    0.6229    1.4855   -1.3440 H   0  0  0  0  0  0  0  0  0  0  0  0
  1  2  1  0
  2  3  1  0
  3  4  1  0
  4  5  1  0
  5  6  1  0
  6  7  1  0
  7  8  1  0
  8  9  1  0
  9  2  1  0
  9  3  1  0
  7  4  1  0
  8  5  1  0
  1 10  1  0
  2 11  1  0
  3 12  1  0
  4 13  1  0
  5 14  1  0
  7 15  1  0
  8 16  1  0
  9 17  1  0
M  END
