
     RDKit          3D

 19 21  0  0  0  0  0  0  0  0999 V2000
   -2.6071    0.6056   -0.2833 O   0  0  0  0  0  0  0  0  0  0  0  0
   -1.3296    0.2917    0.1790 C   0  0  0  0  0  0  0  0  0  0  0  0
   -1.1146   -1.1622    0.5262 C   0  0  0  0  0  0  0  0  0  0  0  0
    0.2058   -1.1218   -0.2520 C   0  0  0  0  0  0  0  0  0  0  0  0
   -0.2765    0.1674   -0.8683 C   0  0  0  0  0  0  0  0  0  0  0  0
    0.9244    1.0616   -0.7203 C   0  0  0  0  0  0  0  0  0  0  0  0
    1.6582    0.6671    0.5072 C   0  0  0  0  0  0  0  0  0  0  0  0
    1.0341    0.1772    1.6229 O   0  0  0  0  0  0  0  0  0  0  0  0
    1.3230   -0.7890    0.6810 C   0  0  0  0  0  0  0  0  0  0  0  0
   -2.8397    1.5522   -0.0796 H   0  0  0  0  0  0  0  0  0  0  0  0
   -1.0482    1.0190    0.9683 H   0  0  0  0  0  0  0  0  0  0  0  0
   -1.8810   -1.7779    0.0267 H   0  0  0  0  0  0  0  0  0  0  0  0
   -1.0026   -1.2772    1.6102 H   0  0  0  0  0  0  0  0  0  0  0  0
    0.3607   -1.9648   -0.9313 H   0  0  0  0  0  0  0  0  0  0  0  0
   -0.5998    0.0287   -1.9055 H   0  0  0  0  0  0  0  0  0  0  0  0
    1.5945    0.8311   -1.5994 H   0  0  0  0  0  0  0  0  0  0  0  0
    0.6753    2.1234   -0.8087 H   0  0  0  0  0  0  0  0  0  0  0  0
    2.7146    1.0059    0.5488 H   0  0  0  0  0  0  0  0  0  0  0  0
    2.2084   -1.4380    0.7782 H   0  0  0  0  0  0  0  0  0  0  0  0
  1  2  1  0
  2  3  1  0
  3  4  1  0
  4  5  1  0
  5  6  1  0
  6  7  1  0
  7  8  1  0
  8  9  1  0
  5  2  1  0
  9  7  1  0
  9  4  1  0
  1 10  1  0
  2 11  1  0
  3 12  1  0
  3 13  1  0
  4 14  1  0
  5 15  1  0
  6 16  1  0
  6 17  1  0
  7 18  1  0
  9 19  1  0
M  END
