
     RDKit          3D

 18 20  0  0  0  0  0  0  0  0999 V2000
    1.3571   -1.3034   -0.8609 O   0  0  0  0  0  0  0  0  0  0  0  0
    1.0741   -0.6868    0.3637 C   0  0  0  0  0  0  0  0  0  0  0  0
    1.2916    0.7983    0.1748 C   0  0  0  0  0  0  0  0  0  0  0  0
   -0.0816    1.3688   -0.0748 C   0  0  0  0  0  0  0  0  0  0  0  0
   -1.1412    0.5632   -0.7154 C   0  0  0  0  0  0  0  0  0  0  0  0
   -1.1600   -0.9316   -0.6502 C   0  0  0  0  0  0  0  0  0  0  0  0
   -0.4106   -0.8185    0.6834 C   0  0  0  0  0  0  0  0  0  0  0  0
   -0.9456    0.5664    0.7775 C   0  0  0  0  0  0  0  0  0  0  0  0
    2.0755   -0.7691   -1.2925 H   0  0  0  0  0  0  0  0  0  0  0  0
    1.7077   -1.1155    1.1491 H   0  0  0  0  0  0  0  0  0  0  0  0
    1.6063    1.1873    1.1870 H   0  0  0  0  0  0  0  0  0  0  0  0
    2.0222    1.0318   -0.5992 H   0  0  0  0  0  0  0  0  0  0  0  0
   -0.1928    2.4479   -0.0952 H   0  0  0  0  0  0  0  0  0  0  0  0
   -2.0213    1.0872   -1.0882 H   0  0  0  0  0  0  0  0  0  0  0  0
   -2.1860   -1.2958   -0.4320 H   0  0  0  0  0  0  0  0  0  0  0  0
   -0.6260   -1.4808   -1.4309 H   0  0  0  0  0  0  0  0  0  0  0  0
   -0.6794   -1.5442    1.4360 H   0  0  0  0  0  0  0  0  0  0  0  0
   -1.6900    0.8949    1.4678 H   0  0  0  0  0  0  0  0  0  0  0  0
  1  2  1  0
  2  3  1  0
  3  4  1  0
  4  5  1  0
  5  6  1  0
  6  7  1  0
  7  8  1  0
  7  2  1  0
  8  4  1  0
  8  5  1  0
  1  9  1  0
  2 10  1  0
  3 11  1  0
  3 12  1  0
  4 13  1  0
  5 14  1  0
  6 15  1  0
  6 16  1  0
  7 17  1  0
  8 18  1  0
M  END
