
     RDKit          3D

 21 22  0  0  0  0  0  0  0  0999 V2000
   -2.3075    1.5455    1.0194 O   0  0  0  0  0  0  0  0  0  0  0  0
   -1.8819    0.9142   -0.1226 C   0  0  0  0  0  0  0  0  0  0  0  0
   -0.3880    0.9347   -0.2760 C   0  0  0  0  0  0  0  0  0  0  0  0
    0.1697   -0.1191    0.2763 C   0  0  0  0  0  0  0  0  0  0  0  0
    1.6271   -0.4605    0.3329 C   0  0  0  0  0  0  0  0  0  0  0  0
    2.3365   -0.8561   -0.9289 C   0  0  0  0  0  0  0  0  0  0  0  0
    2.6270    0.4388   -0.2800 C   0  0  0  0  0  0  0  0  0  0  0  0
   -0.9076   -0.9455    0.8688 C   0  0  0  0  0  0  0  0  0  0  0  0
   -2.1101   -0.6002    0.0268 C   0  0  0  0  0  0  0  0  0  0  0  0
   -2.7503    2.3917    0.7595 H   0  0  0  0  0  0  0  0  0  0  0  0
   -2.3542    1.2660   -1.0522 H   0  0  0  0  0  0  0  0  0  0  0  0
    0.1482    1.7241   -0.7801 H   0  0  0  0  0  0  0  0  0  0  0  0
    1.9445   -1.0060    1.2339 H   0  0  0  0  0  0  0  0  0  0  0  0
    3.0496   -1.6827   -0.9366 H   0  0  0  0  0  0  0  0  0  0  0  0
    1.6809   -0.7869   -1.8427 H   0  0  0  0  0  0  0  0  0  0  0  0
    2.3316    1.3809   -0.7859 H   0  0  0  0  0  0  0  0  0  0  0  0
    3.6359    0.5173    0.1866 H   0  0  0  0  0  0  0  0  0  0  0  0
   -0.6902   -2.0240    0.7215 H   0  0  0  0  0  0  0  0  0  0  0  0
   -1.0675   -0.7186    1.9432 H   0  0  0  0  0  0  0  0  0  0  0  0
   -3.0672   -0.7929    0.5628 H   0  0  0  0  0  0  0  0  0  0  0  0
   -2.0266   -1.1204   -0.9266 H   0  0  0  0  0  0  0  0  0  0  0  0
  1  2  1  0
  2  3  1  0
  3  4  2  0
  4  5  1  0
  5  6  1  0
  6  7  1  0
  4  8  1  0
  8  9  1  0
  9  2  1  0
  7  5  1  0
  1 10  1  0
  2 11  1  0
  3 12  1  0
  5 13  1  0
  6 14  1  0
  6 15  1  0
  7 16  1  0
  7 17  1  0
  8 18  1  0
  8 19  1  0
  9 20  1  0
  9 21  1  0
M  END
