
     RDKit          3D

 19 20  0  0  0  0  0  0  0  0999 V2000
    1.1071   -1.3401    1.0955 O   0  0  0  0  0  0  0  0  0  0  0  0
    1.3938   -0.3829    0.1733 C   0  0  0  0  0  0  0  0  0  0  0  0
    1.9620    0.8338    0.9307 C   0  0  0  0  0  0  0  0  0  0  0  0
    0.6662    1.3494    1.0030 O   0  0  0  0  0  0  0  0  0  0  0  0
    0.4321    0.6546   -0.2126 C   0  0  0  0  0  0  0  0  0  0  0  0
   -0.9599    0.3911   -0.5808 C   0  0  0  0  0  0  0  0  0  0  0  0
   -1.7252    1.5818   -0.7453 O   0  0  0  0  0  0  0  0  0  0  0  0
   -1.6972   -0.6807    0.2343 C   0  0  0  0  0  0  0  0  0  0  0  0
   -1.4773   -0.7809   -1.2724 C   0  0  0  0  0  0  0  0  0  0  0  0
    1.0995   -2.2242    0.6484 H   0  0  0  0  0  0  0  0  0  0  0  0
    2.1385   -0.6712   -0.6052 H   0  0  0  0  0  0  0  0  0  0  0  0
    2.3292    0.6148    1.9447 H   0  0  0  0  0  0  0  0  0  0  0  0
    2.6712    1.4026    0.3374 H   0  0  0  0  0  0  0  0  0  0  0  0
    0.9516    1.3180   -0.9915 H   0  0  0  0  0  0  0  0  0  0  0  0
   -1.7449    2.0846    0.1058 H   0  0  0  0  0  0  0  0  0  0  0  0
   -2.7295   -0.4364    0.5708 H   0  0  0  0  0  0  0  0  0  0  0  0
   -1.1472   -1.4009    0.8400 H   0  0  0  0  0  0  0  0  0  0  0  0
   -0.8660   -1.6375   -1.6035 H   0  0  0  0  0  0  0  0  0  0  0  0
   -2.4040   -0.6759   -1.8726 H   0  0  0  0  0  0  0  0  0  0  0  0
  1  2  1  0
  2  3  1  0
  3  4  1  0
  4  5  1  0
  5  6  1  0
  6  7  1  0
  6  8  1  0
  8  9  1  0
  5  2  1  0
  9  6  1  0
  1 10  1  0
  2 11  1  0
  3 12  1  0
  3 13  1  0
  5 14  1  0
  7 15  1  0
  8 16  1  0
  8 17  1  0
  9 18  1  0
  9 19  1  0
M  END
