
     RDKit          3D

 21 21  0  0  0  0  0  0  0  0999 V2000
    1.9898   -1.7326    0.4598 O   0  0  0  0  0  0  0  0  0  0  0  0
    1.0384   -0.6928    0.3400 C   0  0  0  0  0  0  0  0  0  0  0  0
   -0.1423   -1.2792   -0.3792 C   0  0  0  0  0  0  0  0  0  0  0  0
   -1.4364   -0.9488    0.3301 C   0  0  0  0  0  0  0  0  0  0  0  0
   -1.6944    0.5371    0.0873 C   0  0  0  0  0  0  0  0  0  0  0  0
   -0.8053    1.2293    0.8900 O   0  0  0  0  0  0  0  0  0  0  0  0
    0.0052    2.0411    0.0850 C   0  0  0  0  0  0  0  0  0  0  0  0
    1.3360    1.6994    0.1882 O   0  0  0  0  0  0  0  0  0  0  0  0
    1.6427    0.4854   -0.3866 C   0  0  0  0  0  0  0  0  0  0  0  0
    1.5216   -2.6078    0.4470 H   0  0  0  0  0  0  0  0  0  0  0  0
    0.8132   -0.3851    1.3793 H   0  0  0  0  0  0  0  0  0  0  0  0
   -0.0852   -2.3721   -0.5162 H   0  0  0  0  0  0  0  0  0  0  0  0
   -0.2105   -0.8421   -1.4064 H   0  0  0  0  0  0  0  0  0  0  0  0
   -2.2629   -1.5796   -0.0183 H   0  0  0  0  0  0  0  0  0  0  0  0
   -1.2711   -1.1002    1.4251 H   0  0  0  0  0  0  0  0  0  0  0  0
   -2.7321    0.8197    0.2844 H   0  0  0  0  0  0  0  0  0  0  0  0
   -1.4502    0.7065   -0.9874 H   0  0  0  0  0  0  0  0  0  0  0  0
   -0.0922    3.0747    0.5222 H   0  0  0  0  0  0  0  0  0  0  0  0
   -0.3593    2.1140   -0.9502 H   0  0  0  0  0  0  0  0  0  0  0  0
    1.4329    0.4599   -1.4840 H   0  0  0  0  0  0  0  0  0  0  0  0
    2.7623    0.3731   -0.3099 H   0  0  0  0  0  0  0  0  0  0  0  0
  1  2  1  0
  2  3  1  0
  3  4  1  0
  4  5  1  0
  5  6  1  0
  6  7  1  0
  7  8  1  0
  8  9  1  0
  9  2  1  0
  1 10  1  0
  2 11  1  0
  3 12  1  0
  3 13  1  0
  4 14  1  0
  4 15  1  0
  5 16  1  0
  5 17  1  0
  7 18  1  0
  7 19  1  0
  9 20  1  0
  9 21  1  0
M  END
