
     RDKit          3D

 16 17  0  0  0  0  0  0  0  0999 V2000
   -2.6212    0.6019   -0.6633 O   0  0  0  0  0  0  0  0  0  0  0  0
   -1.3931    0.3326   -0.0813 C   0  0  0  0  0  0  0  0  0  0  0  0
   -0.5370   -0.7642   -0.5365 C   0  0  0  0  0  0  0  0  0  0  0  0
    0.4341   -1.3305    0.4786 C   0  0  0  0  0  0  0  0  0  0  0  0
    1.6858   -0.8679    0.1362 O   0  0  0  0  0  0  0  0  0  0  0  0
    1.8143    0.4927    0.1744 C   0  0  0  0  0  0  0  0  0  0  0  0
    0.8562    1.2119   -0.4572 O   0  0  0  0  0  0  0  0  0  0  0  0
   -0.1764    0.5619   -1.0192 C   0  0  0  0  0  0  0  0  0  0  0  0
   -2.7673    1.5849   -0.5698 H   0  0  0  0  0  0  0  0  0  0  0  0
   -1.2989    0.7096    0.9527 H   0  0  0  0  0  0  0  0  0  0  0  0
   -0.8608   -1.5043   -1.2978 H   0  0  0  0  0  0  0  0  0  0  0  0
    0.4555   -2.4416    0.4395 H   0  0  0  0  0  0  0  0  0  0  0  0
    0.1042   -1.0580    1.4894 H   0  0  0  0  0  0  0  0  0  0  0  0
    2.8057    0.7425   -0.3071 H   0  0  0  0  0  0  0  0  0  0  0  0
    1.9216    0.8938    1.2211 H   0  0  0  0  0  0  0  0  0  0  0  0
   -0.4226    0.8346   -2.0765 H   0  0  0  0  0  0  0  0  0  0  0  0
  1  2  1  0
  2  3  1  0
  3  4  1  0
  4  5  1  0
  5  6  1  0
  6  7  1  0
  7  8  1  0
  8  2  1  0
  8  3  1  0
  1  9  1  0
  2 10  1  0
  3 11  1  0
  4 12  1  0
  4 13  1  0
  6 14  1  0
  6 15  1  0
  8 16  1  0
M  END
