
     RDKit          3D

 19 20  0  0  0  0  0  0  0  0999 V2000
   -1.5076   -0.4658    1.8974 O   0  0  0  0  0  0  0  0  0  0  0  0
   -1.8577   -0.0358    0.6243 C   0  0  0  0  0  0  0  0  0  0  0  0
   -1.2281    1.2224    0.0847 C   0  0  0  0  0  0  0  0  0  0  0  0
   -0.8447   -0.1255   -0.4220 C   0  0  0  0  0  0  0  0  0  0  0  0
   -1.3016   -0.4760   -1.7073 O   0  0  0  0  0  0  0  0  0  0  0  0
    0.5724   -0.5350   -0.1763 C   0  0  0  0  0  0  0  0  0  0  0  0
    1.5428    0.4962   -0.7708 C   0  0  0  0  0  0  0  0  0  0  0  0
    2.3520   -0.1206    0.3746 C   0  0  0  0  0  0  0  0  0  0  0  0
    1.1124   -0.2379    1.0499 O   0  0  0  0  0  0  0  0  0  0  0  0
   -1.8656   -1.3859    2.0230 H   0  0  0  0  0  0  0  0  0  0  0  0
   -2.9255   -0.1570    0.3350 H   0  0  0  0  0  0  0  0  0  0  0  0
   -0.5583    1.7355    0.7947 H   0  0  0  0  0  0  0  0  0  0  0  0
   -1.8185    1.9114   -0.5448 H   0  0  0  0  0  0  0  0  0  0  0  0
   -1.4780   -1.4654   -1.7102 H   0  0  0  0  0  0  0  0  0  0  0  0
    0.8628   -1.5455   -0.4984 H   0  0  0  0  0  0  0  0  0  0  0  0
    1.8926    0.2480   -1.7677 H   0  0  0  0  0  0  0  0  0  0  0  0
    1.2918    1.5392   -0.5431 H   0  0  0  0  0  0  0  0  0  0  0  0
    2.6861   -1.1469    0.1193 H   0  0  0  0  0  0  0  0  0  0  0  0
    3.0727    0.5447    0.8377 H   0  0  0  0  0  0  0  0  0  0  0  0
  1  2  1  0
  2  3  1  0
  3  4  1  0
  4  5  1  0
  4  6  1  0
  6  7  1  0
  7  8  1  0
  8  9  1  0
  4  2  1  0
  9  6  1  0
  1 10  1  0
  2 11  1  0
  3 12  1  0
  3 13  1  0
  5 14  1  0
  6 15  1  0
  7 16  1  0
  7 17  1  0
  8 18  1  0
  8 19  1  0
M  END
