
     RDKit          3D

 19 21  0  0  0  0  0  0  0  0999 V2000
    1.9726   -1.3095    0.6032 O   0  0  0  0  0  0  0  0  0  0  0  0
    1.4582   -0.3044   -0.2133 C   0  0  0  0  0  0  0  0  0  0  0  0
    0.0793   -0.6491   -0.6477 C   0  0  0  0  0  0  0  0  0  0  0  0
   -0.8734   -1.1100    0.4306 C   0  0  0  0  0  0  0  0  0  0  0  0
   -1.8632   -0.0800   -0.1252 C   0  0  0  0  0  0  0  0  0  0  0  0
   -0.6688    0.6638   -0.6573 C   0  0  0  0  0  0  0  0  0  0  0  0
    0.0238    1.5880    0.2756 C   0  0  0  0  0  0  0  0  0  0  0  0
    0.5128    1.1844    1.4912 O   0  0  0  0  0  0  0  0  0  0  0  0
    1.4158    1.0368    0.4615 C   0  0  0  0  0  0  0  0  0  0  0  0
    1.2388   -1.9486    0.8304 H   0  0  0  0  0  0  0  0  0  0  0  0
    2.0957   -0.2201   -1.1196 H   0  0  0  0  0  0  0  0  0  0  0  0
   -0.0528   -1.1965   -1.5840 H   0  0  0  0  0  0  0  0  0  0  0  0
   -1.2065   -2.1534    0.3509 H   0  0  0  0  0  0  0  0  0  0  0  0
   -0.6082   -0.8671    1.4587 H   0  0  0  0  0  0  0  0  0  0  0  0
   -2.4791    0.4213    0.6162 H   0  0  0  0  0  0  0  0  0  0  0  0
   -2.4148   -0.5506   -0.9763 H   0  0  0  0  0  0  0  0  0  0  0  0
   -0.7490    1.0799   -1.6646 H   0  0  0  0  0  0  0  0  0  0  0  0
   -0.1318    2.6682    0.1162 H   0  0  0  0  0  0  0  0  0  0  0  0
    2.2506    1.7470    0.3536 H   0  0  0  0  0  0  0  0  0  0  0  0
  1  2  1  0
  2  3  1  0
  3  4  1  0
  4  5  1  0
  5  6  1  0
  6  7  1  0
  7  8  1  0
  8  9  1  0
  9  2  1  0
  6  3  1  0
  9  7  1  0
  1 10  1  0
  2 11  1  0
  3 12  1  0
  4 13  1  0
  4 14  1  0
  5 15  1  0
  5 16  1  0
  6 17  1  0
  7 18  1  0
  9 19  1  0
M  END
