
     RDKit          3D

 23 24  0  0  0  0  0  0  0  0999 V2000
    1.5557    0.8232    1.0173 O   0  0  0  0  0  0  0  0  0  0  0  0
    1.7452    0.2257   -0.2292 C   0  0  0  0  0  0  0  0  0  0  0  0
    1.5786   -1.2735   -0.2450 C   0  0  0  0  0  0  0  0  0  0  0  0
    0.1108   -1.0339   -0.6272 C   0  0  0  0  0  0  0  0  0  0  0  0
   -0.7560   -1.1973    0.5584 C   0  0  0  0  0  0  0  0  0  0  0  0
   -1.8571   -0.1871    0.5680 C   0  0  0  0  0  0  0  0  0  0  0  0
   -1.4009    1.2143    0.4095 C   0  0  0  0  0  0  0  0  0  0  0  0
   -0.3682    1.4483   -0.6251 C   0  0  0  0  0  0  0  0  0  0  0  0
    0.4600    0.3171   -1.0414 C   0  0  0  0  0  0  0  0  0  0  0  0
    2.1296    0.3696    1.6820 H   0  0  0  0  0  0  0  0  0  0  0  0
    2.6334    0.6173   -0.7589 H   0  0  0  0  0  0  0  0  0  0  0  0
    1.7072   -1.7091    0.7705 H   0  0  0  0  0  0  0  0  0  0  0  0
    2.1832   -1.7436   -1.0250 H   0  0  0  0  0  0  0  0  0  0  0  0
   -0.2205   -1.6831   -1.4806 H   0  0  0  0  0  0  0  0  0  0  0  0
   -0.1679   -1.2199    1.5134 H   0  0  0  0  0  0  0  0  0  0  0  0
   -1.2431   -2.2103    0.5112 H   0  0  0  0  0  0  0  0  0  0  0  0
   -2.3593   -0.2686    1.5766 H   0  0  0  0  0  0  0  0  0  0  0  0
   -2.5735   -0.4762   -0.2481 H   0  0  0  0  0  0  0  0  0  0  0  0
   -2.3089    1.8375    0.1557 H   0  0  0  0  0  0  0  0  0  0  0  0
   -1.0852    1.6086    1.4177 H   0  0  0  0  0  0  0  0  0  0  0  0
    0.3156    2.2564   -0.2258 H   0  0  0  0  0  0  0  0  0  0  0  0
   -0.8259    1.9273   -1.5403 H   0  0  0  0  0  0  0  0  0  0  0  0
    0.7471    0.3573   -2.1338 H   0  0  0  0  0  0  0  0  0  0  0  0
  1  2  1  0
  2  3  1  0
  3  4  1  0
  4  5  1  0
  5  6  1  0
  6  7  1  0
  7  8  1  0
  8  9  1  0
  9  2  1  0
  9  4  1  0
  1 10  1  0
  2 11  1  0
  3 12  1  0
  3 13  1  0
  4 14  1  0
  5 15  1  0
  5 16  1  0
  6 17  1  0
  6 18  1  0
  7 19  1  0
  7 20  1  0
  8 21  1  0
  8 22  1  0
  9 23  1  0
M  END
