
     RDKit          3D

 19 20  0  0  0  0  0  0  0  0999 V2000
    2.3309   -0.4744   -0.5814 O   0  0  0  0  0  0  0  0  0  0  0  0
    1.0695    0.1032   -0.5339 C   0  0  0  0  0  0  0  0  0  0  0  0
    0.7240    0.6527    0.8586 C   0  0  0  0  0  0  0  0  0  0  0  0
   -0.3859    1.6080    0.6186 C   0  0  0  0  0  0  0  0  0  0  0  0
   -1.3798    1.1805   -0.1393 C   0  0  0  0  0  0  0  0  0  0  0  0
   -1.3715   -0.2278   -0.6933 C   0  0  0  0  0  0  0  0  0  0  0  0
   -0.0703   -0.8729   -0.3336 C   0  0  0  0  0  0  0  0  0  0  0  0
    0.1929   -2.0988   -0.8667 O   0  0  0  0  0  0  0  0  0  0  0  0
    0.1673   -0.7216    1.1583 C   0  0  0  0  0  0  0  0  0  0  0  0
    2.9784    0.2710   -0.6635 H   0  0  0  0  0  0  0  0  0  0  0  0
    0.8416    0.8047   -1.3581 H   0  0  0  0  0  0  0  0  0  0  0  0
    1.5639    0.9912    1.4494 H   0  0  0  0  0  0  0  0  0  0  0  0
   -0.3985    2.5951    1.0290 H   0  0  0  0  0  0  0  0  0  0  0  0
   -2.1979    1.8529   -0.3566 H   0  0  0  0  0  0  0  0  0  0  0  0
   -1.4765   -0.1104   -1.7912 H   0  0  0  0  0  0  0  0  0  0  0  0
   -2.1958   -0.7596   -0.2188 H   0  0  0  0  0  0  0  0  0  0  0  0
   -0.5650   -2.7049   -0.8253 H   0  0  0  0  0  0  0  0  0  0  0  0
    0.9691   -1.3617    1.5668 H   0  0  0  0  0  0  0  0  0  0  0  0
   -0.7966   -0.7274    1.6812 H   0  0  0  0  0  0  0  0  0  0  0  0
  1  2  1  0
  2  3  1  0
  3  4  1  0
  4  5  2  0
  5  6  1  0
  6  7  1  0
  7  8  1  0
  7  9  1  0
  7  2  1  0
  9  3  1  0
  1 10  1  0
  2 11  1  0
  3 12  1  0
  4 13  1  0
  5 14  1  0
  6 15  1  0
  6 16  1  0
  8 17  1  0
  9 18  1  0
  9 19  1  0
M  END
