
     RDKit          3D

 21 22  0  0  0  0  0  0  0  0999 V2000
    2.0144   -0.2216    1.5409 O   0  0  0  0  0  0  0  0  0  0  0  0
    0.8713   -0.6981    0.9304 C   0  0  0  0  0  0  0  0  0  0  0  0
   -0.3878   -0.0604    1.4670 C   0  0  0  0  0  0  0  0  0  0  0  0
   -1.3496    0.1882    0.3439 C   0  0  0  0  0  0  0  0  0  0  0  0
   -1.3688   -1.0197   -0.5642 C   0  0  0  0  0  0  0  0  0  0  0  0
   -0.1947   -1.2651   -1.1420 C   0  0  0  0  0  0  0  0  0  0  0  0
    0.9522   -0.4777   -0.5750 C   0  0  0  0  0  0  0  0  0  0  0  0
    0.6722    0.9733   -0.9078 C   0  0  0  0  0  0  0  0  0  0  0  0
   -0.7492    1.3064   -0.5135 C   0  0  0  0  0  0  0  0  0  0  0  0
    2.3431    0.5406    1.0353 H   0  0  0  0  0  0  0  0  0  0  0  0
    0.8253   -1.8191    1.0561 H   0  0  0  0  0  0  0  0  0  0  0  0
   -0.0864    0.9364    1.8855 H   0  0  0  0  0  0  0  0  0  0  0  0
   -0.8192   -0.7222    2.2615 H   0  0  0  0  0  0  0  0  0  0  0  0
   -2.3481    0.4768    0.6583 H   0  0  0  0  0  0  0  0  0  0  0  0
   -2.2609   -1.6150   -0.7171 H   0  0  0  0  0  0  0  0  0  0  0  0
   -0.0929   -1.9692   -1.9444 H   0  0  0  0  0  0  0  0  0  0  0  0
    1.9176   -0.8222   -0.9480 H   0  0  0  0  0  0  0  0  0  0  0  0
    0.8384    1.0768   -2.0086 H   0  0  0  0  0  0  0  0  0  0  0  0
    1.4097    1.6523   -0.4296 H   0  0  0  0  0  0  0  0  0  0  0  0
   -1.3429    1.2912   -1.4664 H   0  0  0  0  0  0  0  0  0  0  0  0
   -0.8437    2.2484    0.0379 H   0  0  0  0  0  0  0  0  0  0  0  0
  1  2  1  0
  2  3  1  0
  3  4  1  0
  4  5  1  0
  5  6  2  0
  6  7  1  0
  7  8  1  0
  8  9  1  0
  7  2  1  0
  9  4  1  0
  1 10  1  0
  2 11  1  0
  3 12  1  0
  3 13  1  0
  4 14  1  0
  5 15  1  0
  6 16  1  0
  7 17  1  0
  8 18  1  0
  8 19  1  0
  9 20  1  0
  9 21  1  0
M  END
