
     RDKit          3D

 20 21  0  0  0  0  0  0  0  0999 V2000
    2.1423   -0.4581    0.9003 O   0  0  0  0  0  0  0  0  0  0  0  0
    1.3552   -0.3476   -0.2451 C   0  0  0  0  0  0  0  0  0  0  0  0
    0.2985   -1.3958   -0.3057 C   0  0  0  0  0  0  0  0  0  0  0  0
   -1.0795   -0.8837    0.0183 C   0  0  0  0  0  0  0  0  0  0  0  0
   -1.4810    0.2856   -0.8396 C   0  0  0  0  0  0  0  0  0  0  0  0
   -0.6113    1.1389    0.0586 C   0  0  0  0  0  0  0  0  0  0  0  0
    0.8354    1.0574   -0.3481 C   0  0  0  0  0  0  0  0  0  0  0  0
   -0.9078    0.1199    1.1675 C   0  0  0  0  0  0  0  0  0  0  0  0
    2.6259    0.3608    1.1207 H   0  0  0  0  0  0  0  0  0  0  0  0
    2.0450   -0.4990   -1.1195 H   0  0  0  0  0  0  0  0  0  0  0  0
    0.3220   -1.9698   -1.2632 H   0  0  0  0  0  0  0  0  0  0  0  0
    0.5418   -2.1540    0.4959 H   0  0  0  0  0  0  0  0  0  0  0  0
   -1.8151   -1.6565    0.1961 H   0  0  0  0  0  0  0  0  0  0  0  0
   -1.1996    0.2416   -1.8919 H   0  0  0  0  0  0  0  0  0  0  0  0
   -2.5401    0.5409   -0.6823 H   0  0  0  0  0  0  0  0  0  0  0  0
   -1.0008    2.1121    0.3398 H   0  0  0  0  0  0  0  0  0  0  0  0
    1.4029    1.7483    0.3244 H   0  0  0  0  0  0  0  0  0  0  0  0
    0.9323    1.4479   -1.3873 H   0  0  0  0  0  0  0  0  0  0  0  0
   -1.8487    0.3614    1.6860 H   0  0  0  0  0  0  0  0  0  0  0  0
   -0.0174   -0.0502    1.7753 H   0  0  0  0  0  0  0  0  0  0  0  0
  1  2  1  0
  2  3  1  0
  3  4  1  0
  4  5  1  0
  5  6  1  0
  6  7  1  0
  6  8  1  0
  7  2  1  0
  8  4  1  0
  1  9  1  0
  2 10  1  0
  3 11  1  0
  3 12  1  0
  4 13  1  0
  5 14  1  0
  5 15  1  0
  6 16  1  0
  7 17  1  0
  7 18  1  0
  8 19  1  0
  8 20  1  0
M  END
