
     RDKit          3D

 19 20  0  0  0  0  0  0  0  0999 V2000
   -1.4166   -0.4896   -1.5793 O   0  0  0  0  0  0  0  0  0  0  0  0
   -1.3590   -0.3201   -0.1830 C   0  0  0  0  0  0  0  0  0  0  0  0
   -1.2071    1.1503    0.1210 C   0  0  0  0  0  0  0  0  0  0  0  0
    0.0864    0.8256    0.8709 C   0  0  0  0  0  0  0  0  0  0  0  0
    1.1620    1.4458    0.2934 O   0  0  0  0  0  0  0  0  0  0  0  0
    1.9727    0.5010   -0.2864 C   0  0  0  0  0  0  0  0  0  0  0  0
    1.0954   -0.6681   -0.6311 C   0  0  0  0  0  0  0  0  0  0  0  0
    0.0016   -0.5745    0.3947 C   0  0  0  0  0  0  0  0  0  0  0  0
    0.1067   -1.5750    1.3247 O   0  0  0  0  0  0  0  0  0  0  0  0
   -2.1437   -1.0971   -1.8101 H   0  0  0  0  0  0  0  0  0  0  0  0
   -2.1867   -0.8104    0.3603 H   0  0  0  0  0  0  0  0  0  0  0  0
   -1.0612    1.8124   -0.7517 H   0  0  0  0  0  0  0  0  0  0  0  0
   -1.9890    1.5711    0.8003 H   0  0  0  0  0  0  0  0  0  0  0  0
   -0.0093    1.0014    1.9582 H   0  0  0  0  0  0  0  0  0  0  0  0
    2.4593    0.8654   -1.1959 H   0  0  0  0  0  0  0  0  0  0  0  0
    2.7160    0.1822    0.4787 H   0  0  0  0  0  0  0  0  0  0  0  0
    0.6736   -0.6366   -1.6406 H   0  0  0  0  0  0  0  0  0  0  0  0
    1.6930   -1.5916   -0.5306 H   0  0  0  0  0  0  0  0  0  0  0  0
   -0.5941   -1.5922    2.0065 H   0  0  0  0  0  0  0  0  0  0  0  0
  1  2  1  0
  2  3  1  0
  3  4  1  0
  4  5  1  0
  5  6  1  0
  6  7  1  0
  7  8  1  0
  8  9  1  0
  8  2  1  0
  8  4  1  0
  1 10  1  0
  2 11  1  0
  3 12  1  0
  3 13  1  0
  4 14  1  0
  6 15  1  0
  6 16  1  0
  7 17  1  0
  7 18  1  0
  9 19  1  0
M  END
