
     RDKit          3D

 21 22  0  0  0  0  0  0  0  0999 V2000
    2.1991   -1.0252    0.8869 O   0  0  0  0  0  0  0  0  0  0  0  0
    1.9496    0.1125    0.1610 C   0  0  0  0  0  0  0  0  0  0  0  0
    0.7053    0.8873    0.5905 C   0  0  0  0  0  0  0  0  0  0  0  0
   -0.0558    0.0009   -0.3778 C   0  0  0  0  0  0  0  0  0  0  0  0
   -0.7283   -1.1744    0.2988 C   0  0  0  0  0  0  0  0  0  0  0  0
   -1.9309   -0.4820    0.8384 C   0  0  0  0  0  0  0  0  0  0  0  0
   -2.2109    0.5890    0.1029 C   0  0  0  0  0  0  0  0  0  0  0  0
   -1.2041    0.6918   -0.9956 C   0  0  0  0  0  0  0  0  0  0  0  0
    1.1769   -0.2423   -1.1198 C   0  0  0  0  0  0  0  0  0  0  0  0
    2.5286   -0.8409    1.7878 H   0  0  0  0  0  0  0  0  0  0  0  0
    2.8142    0.7604   -0.0069 H   0  0  0  0  0  0  0  0  0  0  0  0
    0.3871    0.7375    1.6190 H   0  0  0  0  0  0  0  0  0  0  0  0
    0.7398    1.9263    0.2542 H   0  0  0  0  0  0  0  0  0  0  0  0
   -0.0954   -1.6217    1.0654 H   0  0  0  0  0  0  0  0  0  0  0  0
   -0.9821   -1.8977   -0.5022 H   0  0  0  0  0  0  0  0  0  0  0  0
   -2.4827   -0.8154    1.7025 H   0  0  0  0  0  0  0  0  0  0  0  0
   -3.0215    1.2979    0.2377 H   0  0  0  0  0  0  0  0  0  0  0  0
   -1.5631    0.0982   -1.8663 H   0  0  0  0  0  0  0  0  0  0  0  0
   -1.0244    1.7261   -1.3183 H   0  0  0  0  0  0  0  0  0  0  0  0
    1.4183   -1.2549   -1.4717 H   0  0  0  0  0  0  0  0  0  0  0  0
    1.3802    0.5267   -1.8866 H   0  0  0  0  0  0  0  0  0  0  0  0
  1  2  1  0
  2  3  1  0
  3  4  1  0
  4  5  1  0
  5  6  1  0
  6  7  2  0
  7  8  1  0
  4  9  1  0
  9  2  1  0
  8  4  1  0
  1 10  1  0
  2 11  1  0
  3 12  1  0
  3 13  1  0
  5 14  1  0
  5 15  1  0
  6 16  1  0
  7 17  1  0
  8 18  1  0
  8 19  1  0
  9 20  1  0
  9 21  1  0
M  END
