
     RDKit          3D

 15 16  0  0  0  0  0  0  0  0999 V2000
    1.8904    0.4048   -0.6597 O   0  0  0  0  0  0  0  0  0  0  0  0
    1.1594   -0.6953   -0.2173 C   0  0  0  0  0  0  0  0  0  0  0  0
   -0.2775   -0.8446   -0.5052 C   0  0  0  0  0  0  0  0  0  0  0  0
   -1.1861    0.3008   -0.7691 C   0  0  0  0  0  0  0  0  0  0  0  0
   -0.6118    1.4077   -0.1578 O   0  0  0  0  0  0  0  0  0  0  0  0
   -0.2214    0.9715    1.0893 C   0  0  0  0  0  0  0  0  0  0  0  0
    0.2561   -0.4723    0.9050 C   0  0  0  0  0  0  0  0  0  0  0  0
    2.0033    0.4342   -1.6370 H   0  0  0  0  0  0  0  0  0  0  0  0
    1.7512   -1.6322   -0.2227 H   0  0  0  0  0  0  0  0  0  0  0  0
   -0.6960   -1.8437   -0.6401 H   0  0  0  0  0  0  0  0  0  0  0  0
   -1.4455    0.4601   -1.8095 H   0  0  0  0  0  0  0  0  0  0  0  0
   -2.1556    0.0893   -0.2291 H   0  0  0  0  0  0  0  0  0  0  0  0
   -1.0675    0.9805    1.7748 H   0  0  0  0  0  0  0  0  0  0  0  0
    0.6225    1.6289    1.4148 H   0  0  0  0  0  0  0  0  0  0  0  0
   -0.0217   -1.1894    1.6635 H   0  0  0  0  0  0  0  0  0  0  0  0
  1  2  1  0
  2  3  1  0
  3  4  1  0
  4  5  1  0
  5  6  1  0
  6  7  1  0
  7  2  1  0
  7  3  1  0
  1  8  1  0
  2  9  1  0
  3 10  1  0
  4 11  1  0
  4 12  1  0
  6 13  1  0
  6 14  1  0
  7 15  1  0
M  END
