
     RDKit          3D

 18 19  0  0  0  0  0  0  0  0999 V2000
    2.2850    0.3877    0.9881 O   0  0  0  0  0  0  0  0  0  0  0  0
    1.3917   -0.3612    0.2780 C   0  0  0  0  0  0  0  0  0  0  0  0
    0.8472    0.3934   -0.9532 C   0  0  0  0  0  0  0  0  0  0  0  0
   -0.5321    0.6848   -0.5064 C   0  0  0  0  0  0  0  0  0  0  0  0
   -1.7704    0.0403   -0.6325 C   0  0  0  0  0  0  0  0  0  0  0  0
   -2.8650    0.4691    0.1509 O   0  0  0  0  0  0  0  0  0  0  0  0
   -0.8248   -0.7988   -0.0323 C   0  0  0  0  0  0  0  0  0  0  0  0
    0.1220   -0.6825    1.0995 C   0  0  0  0  0  0  0  0  0  0  0  0
    3.0743   -0.1777    1.2526 H   0  0  0  0  0  0  0  0  0  0  0  0
    1.7614   -1.3260   -0.0833 H   0  0  0  0  0  0  0  0  0  0  0  0
    0.9093   -0.2283   -1.8592 H   0  0  0  0  0  0  0  0  0  0  0  0
    1.4050    1.3389   -1.1059 H   0  0  0  0  0  0  0  0  0  0  0  0
   -0.4818    1.4542    0.3263 H   0  0  0  0  0  0  0  0  0  0  0  0
   -2.1469   -0.1778   -1.6749 H   0  0  0  0  0  0  0  0  0  0  0  0
   -2.9804    1.4613    0.0329 H   0  0  0  0  0  0  0  0  0  0  0  0
   -0.4131   -1.6097   -0.7190 H   0  0  0  0  0  0  0  0  0  0  0  0
    0.2531   -1.5599    1.7220 H   0  0  0  0  0  0  0  0  0  0  0  0
   -0.0346    0.2513    1.7163 H   0  0  0  0  0  0  0  0  0  0  0  0
  1  2  1  0
  2  3  1  0
  3  4  1  0
  4  5  1  0
  5  6  1  0
  5  7  1  0
  7  8  1  0
  8  2  1  0
  7  4  1  0
  1  9  1  0
  2 10  1  0
  3 11  1  0
  3 12  1  0
  4 13  1  0
  5 14  1  0
  6 15  1  0
  7 16  1  0
  8 17  1  0
  8 18  1  0
M  END
