
     RDKit          3D

 19 20  0  0  0  0  0  0  0  0999 V2000
    1.6114   -1.3246    0.9134 O   0  0  0  0  0  0  0  0  0  0  0  0
    1.0638   -0.7071   -0.1827 C   0  0  0  0  0  0  0  0  0  0  0  0
   -0.3330   -1.3240   -0.4034 C   0  0  0  0  0  0  0  0  0  0  0  0
   -1.1820   -0.1478   -0.0435 C   0  0  0  0  0  0  0  0  0  0  0  0
   -2.5007   -0.1922   -0.0958 O   0  0  0  0  0  0  0  0  0  0  0  0
   -0.4812    0.3994    1.1820 C   0  0  0  0  0  0  0  0  0  0  0  0
    0.6394    0.6869    0.2147 C   0  0  0  0  0  0  0  0  0  0  0  0
    1.5472    1.6131    0.4930 O   0  0  0  0  0  0  0  0  0  0  0  0
   -0.4509    0.9750   -0.7957 C   0  0  0  0  0  0  0  0  0  0  0  0
    2.5715   -1.4771    0.8268 H   0  0  0  0  0  0  0  0  0  0  0  0
    1.6570   -0.7426   -1.0945 H   0  0  0  0  0  0  0  0  0  0  0  0
   -0.4363   -1.5179   -1.4846 H   0  0  0  0  0  0  0  0  0  0  0  0
   -0.4770   -2.2001    0.2320 H   0  0  0  0  0  0  0  0  0  0  0  0
   -2.9190    0.6413   -0.3917 H   0  0  0  0  0  0  0  0  0  0  0  0
   -0.2000   -0.4419    1.8438 H   0  0  0  0  0  0  0  0  0  0  0  0
   -0.9489    1.2609    1.6608 H   0  0  0  0  0  0  0  0  0  0  0  0
    1.9655    1.9556   -0.3365 H   0  0  0  0  0  0  0  0  0  0  0  0
   -0.9250    1.9534   -0.7350 H   0  0  0  0  0  0  0  0  0  0  0  0
   -0.2018    0.5898   -1.8030 H   0  0  0  0  0  0  0  0  0  0  0  0
  1  2  1  0
  2  3  1  0
  3  4  1  0
  4  5  1  0
  4  6  1  0
  6  7  1  0
  7  8  1  0
  7  9  1  0
  7  2  1  0
  9  4  1  0
  1 10  1  0
  2 11  1  0
  3 12  1  0
  3 13  1  0
  5 14  1  0
  6 15  1  0
  6 16  1  0
  8 17  1  0
  9 18  1  0
  9 19  1  0
M  END
