
     RDKit          3D

 21 22  0  0  0  0  0  0  0  0999 V2000
    1.6043   -1.9930   -0.2771 O   0  0  0  0  0  0  0  0  0  0  0  0
    0.7759   -0.8581   -0.3499 C   0  0  0  0  0  0  0  0  0  0  0  0
    1.5212    0.2897    0.3054 C   0  0  0  0  0  0  0  0  0  0  0  0
    0.7946    1.5530   -0.0268 C   0  0  0  0  0  0  0  0  0  0  0  0
   -0.3394    1.3881   -0.7752 O   0  0  0  0  0  0  0  0  0  0  0  0
   -1.3928    0.7995   -0.1447 C   0  0  0  0  0  0  0  0  0  0  0  0
   -1.5998   -0.5778   -0.7921 C   0  0  0  0  0  0  0  0  0  0  0  0
   -0.5740   -1.0799    0.2283 C   0  0  0  0  0  0  0  0  0  0  0  0
   -1.0348    0.0579    1.1182 C   0  0  0  0  0  0  0  0  0  0  0  0
    2.4176   -1.7432   -0.8091 H   0  0  0  0  0  0  0  0  0  0  0  0
    0.7314   -0.6043   -1.4415 H   0  0  0  0  0  0  0  0  0  0  0  0
    2.5597    0.2525   -0.1391 H   0  0  0  0  0  0  0  0  0  0  0  0
    1.6760    0.1282    1.3918 H   0  0  0  0  0  0  0  0  0  0  0  0
    1.5036    2.1794   -0.6447 H   0  0  0  0  0  0  0  0  0  0  0  0
    0.5745    2.1894    0.8636 H   0  0  0  0  0  0  0  0  0  0  0  0
   -2.3371    1.3930   -0.0742 H   0  0  0  0  0  0  0  0  0  0  0  0
   -1.2366   -0.5831   -1.8374 H   0  0  0  0  0  0  0  0  0  0  0  0
   -2.6011   -0.9897   -0.6873 H   0  0  0  0  0  0  0  0  0  0  0  0
   -0.7987   -2.0520    0.6708 H   0  0  0  0  0  0  0  0  0  0  0  0
   -0.2927    0.5042    1.7683 H   0  0  0  0  0  0  0  0  0  0  0  0
   -1.9516   -0.2537    1.6527 H   0  0  0  0  0  0  0  0  0  0  0  0
  1  2  1  0
  2  3  1  0
  3  4  1  0
  4  5  1  0
  5  6  1  0
  6  7  1  0
  7  8  1  0
  8  9  1  0
  8  2  1  0
  9  6  1  0
  1 10  1  0
  2 11  1  0
  3 12  1  0
  3 13  1  0
  4 14  1  0
  4 15  1  0
  6 16  1  0
  7 17  1  0
  7 18  1  0
  8 19  1  0
  9 20  1  0
  9 21  1  0
M  END
