
     RDKit          3D

 18 18  0  0  0  0  0  0  0  0999 V2000
   -1.0427    2.0197    0.4274 O   0  0  0  0  0  0  0  0  0  0  0  0
   -0.6066    0.7134    0.6391 C   0  0  0  0  0  0  0  0  0  0  0  0
   -1.4278   -0.2321   -0.2093 C   0  0  0  0  0  0  0  0  0  0  0  0
   -0.8432   -1.5876   -0.0259 C   0  0  0  0  0  0  0  0  0  0  0  0
    0.4578   -1.7021   -0.2283 C   0  0  0  0  0  0  0  0  0  0  0  0
    1.2173   -0.4922   -0.6152 C   0  0  0  0  0  0  0  0  0  0  0  0
    0.8506    0.6032    0.3590 C   0  0  0  0  0  0  0  0  0  0  0  0
    1.3962    1.7878   -0.1521 O   0  0  0  0  0  0  0  0  0  0  0  0
   -1.7092    2.0627   -0.3090 H   0  0  0  0  0  0  0  0  0  0  0  0
   -0.8490    0.4814    1.7182 H   0  0  0  0  0  0  0  0  0  0  0  0
   -2.4912   -0.1852    0.0288 H   0  0  0  0  0  0  0  0  0  0  0  0
   -1.3222    0.0439   -1.2804 H   0  0  0  0  0  0  0  0  0  0  0  0
   -1.4846   -2.4085    0.2585 H   0  0  0  0  0  0  0  0  0  0  0  0
    0.9833   -2.6333   -0.1239 H   0  0  0  0  0  0  0  0  0  0  0  0
    2.3143   -0.6530   -0.5562 H   0  0  0  0  0  0  0  0  0  0  0  0
    1.0081   -0.1609   -1.6481 H   0  0  0  0  0  0  0  0  0  0  0  0
    1.3661    0.3273    1.3263 H   0  0  0  0  0  0  0  0  0  0  0  0
    2.1829    2.0155    0.3909 H   0  0  0  0  0  0  0  0  0  0  0  0
  1  2  1  0
  2  3  1  0
  3  4  1  0
  4  5  2  0
  5  6  1  0
  6  7  1  0
  7  8  1  0
  7  2  1  0
  1  9  1  0
  2 10  1  0
  3 11  1  0
  3 12  1  0
  4 13  1  0
  5 14  1  0
  6 15  1  0
  6 16  1  0
  7 17  1  0
  8 18  1  0
M  END
