
     RDKit          3D

 19 21  0  0  0  0  0  0  0  0999 V2000
   -2.0453   -1.5711   -0.3919 O   0  0  0  0  0  0  0  0  0  0  0  0
   -1.0245   -0.8462    0.1804 C   0  0  0  0  0  0  0  0  0  0  0  0
   -1.2539    0.6406    0.1325 C   0  0  0  0  0  0  0  0  0  0  0  0
   -0.0051    1.4425    0.1465 C   0  0  0  0  0  0  0  0  0  0  0  0
    1.2443    0.8074    0.4654 C   0  0  0  0  0  0  0  0  0  0  0  0
    1.3564   -0.6611    0.4808 C   0  0  0  0  0  0  0  0  0  0  0  0
    0.3013   -1.0670   -0.5497 C   0  0  0  0  0  0  0  0  0  0  0  0
    0.5103   -0.1432   -1.5391 O   0  0  0  0  0  0  0  0  0  0  0  0
    0.8442    1.0624   -0.9976 C   0  0  0  0  0  0  0  0  0  0  0  0
   -2.6869   -1.8080    0.3479 H   0  0  0  0  0  0  0  0  0  0  0  0
   -0.8986   -1.1054    1.2720 H   0  0  0  0  0  0  0  0  0  0  0  0
   -1.7567    0.8378   -0.8630 H   0  0  0  0  0  0  0  0  0  0  0  0
   -2.0067    0.9693    0.8827 H   0  0  0  0  0  0  0  0  0  0  0  0
   -0.1403    2.4986    0.4664 H   0  0  0  0  0  0  0  0  0  0  0  0
    2.0585    1.3786    0.9009 H   0  0  0  0  0  0  0  0  0  0  0  0
    1.2176   -1.1557    1.4425 H   0  0  0  0  0  0  0  0  0  0  0  0
    2.3394   -0.9484    0.0127 H   0  0  0  0  0  0  0  0  0  0  0  0
    0.4164   -2.0912   -0.8909 H   0  0  0  0  0  0  0  0  0  0  0  0
    1.5295    1.7602   -1.4983 H   0  0  0  0  0  0  0  0  0  0  0  0
  1  2  1  0
  2  3  1  0
  3  4  1  0
  4  5  1  0
  5  6  1  0
  6  7  1  0
  7  8  1  0
  8  9  1  0
  7  2  1  0
  9  4  1  0
  9  5  1  0
  1 10  1  0
  2 11  1  0
  3 12  1  0
  3 13  1  0
  4 14  1  0
  5 15  1  0
  6 16  1  0
  6 17  1  0
  7 18  1  0
  9 19  1  0
M  END
