
     RDKit          3D

 21 23  0  0  0  0  0  0  0  0999 V2000
    1.4456   -1.3421   -0.0474 O   0  0  0  0  0  0  0  0  0  0  0  0
    1.5861    0.0173   -0.2197 C   0  0  0  0  0  0  0  0  0  0  0  0
    1.0510    0.7376    1.0156 C   0  0  0  0  0  0  0  0  0  0  0  0
    0.5466    1.7761    0.0641 C   0  0  0  0  0  0  0  0  0  0  0  0
    0.3052    0.5729   -0.8590 C   0  0  0  0  0  0  0  0  0  0  0  0
   -0.7258   -0.1859   -0.1336 C   0  0  0  0  0  0  0  0  0  0  0  0
   -1.2129   -1.4461   -0.6699 C   0  0  0  0  0  0  0  0  0  0  0  0
   -2.1307   -0.2646   -0.4263 C   0  0  0  0  0  0  0  0  0  0  0  0
   -0.1876   -0.0843    1.3039 C   0  0  0  0  0  0  0  0  0  0  0  0
    2.2199   -1.8795   -0.2799 H   0  0  0  0  0  0  0  0  0  0  0  0
    2.5128    0.3966   -0.6291 H   0  0  0  0  0  0  0  0  0  0  0  0
    1.7193    0.9791    1.7933 H   0  0  0  0  0  0  0  0  0  0  0  0
    1.3672    2.4197   -0.3495 H   0  0  0  0  0  0  0  0  0  0  0  0
   -0.3794    2.2904    0.3084 H   0  0  0  0  0  0  0  0  0  0  0  0
    0.2980    0.7361   -1.8997 H   0  0  0  0  0  0  0  0  0  0  0  0
   -1.0352   -1.6614   -1.7493 H   0  0  0  0  0  0  0  0  0  0  0  0
   -1.2393   -2.3184   -0.0221 H   0  0  0  0  0  0  0  0  0  0  0  0
   -2.5620    0.2779   -1.2781 H   0  0  0  0  0  0  0  0  0  0  0  0
   -2.8257   -0.3859    0.4488 H   0  0  0  0  0  0  0  0  0  0  0  0
    0.1457   -1.0622    1.6622 H   0  0  0  0  0  0  0  0  0  0  0  0
   -0.8985    0.4266    1.9672 H   0  0  0  0  0  0  0  0  0  0  0  0
  1  2  1  0
  2  3  1  0
  3  4  1  0
  4  5  1  0
  5  6  1  0
  6  7  1  0
  7  8  1  0
  6  9  1  0
  5  2  1  0
  8  6  1  0
  9  3  1  0
  1 10  1  0
  2 11  1  0
  3 12  1  0
  4 13  1  0
  4 14  1  0
  5 15  1  0
  7 16  1  0
  7 17  1  0
  8 18  1  0
  8 19  1  0
  9 20  1  0
  9 21  1  0
M  END
