
     RDKit          3D

 19 20  0  0  0  0  0  0  0  0999 V2000
   -1.6279    1.8725   -0.4908 O   0  0  0  0  0  0  0  0  0  0  0  0
   -0.9682    0.8636    0.2412 C   0  0  0  0  0  0  0  0  0  0  0  0
   -1.5485   -0.4729   -0.2351 C   0  0  0  0  0  0  0  0  0  0  0  0
   -0.5015   -1.5096    0.1436 C   0  0  0  0  0  0  0  0  0  0  0  0
    0.8207   -0.9863   -0.3697 C   0  0  0  0  0  0  0  0  0  0  0  0
    0.6607    0.0778   -1.2568 O   0  0  0  0  0  0  0  0  0  0  0  0
    0.4701    0.9005   -0.1594 C   0  0  0  0  0  0  0  0  0  0  0  0
    1.3428   -0.0079    0.6548 C   0  0  0  0  0  0  0  0  0  0  0  0
    2.6861    0.1975    0.4805 O   0  0  0  0  0  0  0  0  0  0  0  0
   -1.1727    2.7409   -0.4007 H   0  0  0  0  0  0  0  0  0  0  0  0
   -1.1388    1.0171    1.3213 H   0  0  0  0  0  0  0  0  0  0  0  0
   -2.5274   -0.6805    0.1889 H   0  0  0  0  0  0  0  0  0  0  0  0
   -1.5418   -0.4003   -1.3536 H   0  0  0  0  0  0  0  0  0  0  0  0
   -0.7382   -2.5121   -0.1952 H   0  0  0  0  0  0  0  0  0  0  0  0
   -0.4357   -1.5369    1.2615 H   0  0  0  0  0  0  0  0  0  0  0  0
    1.5208   -1.7135   -0.7656 H   0  0  0  0  0  0  0  0  0  0  0  0
    0.8729    1.9245   -0.2523 H   0  0  0  0  0  0  0  0  0  0  0  0
    1.0018   -0.1623    1.6894 H   0  0  0  0  0  0  0  0  0  0  0  0
    2.8246    0.3879   -0.5021 H   0  0  0  0  0  0  0  0  0  0  0  0
  1  2  1  0
  2  3  1  0
  3  4  1  0
  4  5  1  0
  5  6  1  0
  6  7  1  0
  7  8  1  0
  8  9  1  0
  7  2  1  0
  8  5  1  0
  1 10  1  0
  2 11  1  0
  3 12  1  0
  3 13  1  0
  4 14  1  0
  4 15  1  0
  5 16  1  0
  7 17  1  0
  8 18  1  0
  9 19  1  0
M  END
