
     RDKit          3D

 19 20  0  0  0  0  0  0  0  0999 V2000
    1.5961    0.3950    1.3541 O   0  0  0  0  0  0  0  0  0  0  0  0
    1.5494    0.5409   -0.0310 C   0  0  0  0  0  0  0  0  0  0  0  0
    1.6307   -0.8199   -0.6213 C   0  0  0  0  0  0  0  0  0  0  0  0
    0.3956   -1.2896   -0.7448 C   0  0  0  0  0  0  0  0  0  0  0  0
   -0.5830   -0.3098   -0.2621 C   0  0  0  0  0  0  0  0  0  0  0  0
   -2.0144   -0.4367   -0.3215 C   0  0  0  0  0  0  0  0  0  0  0  0
   -1.2989   -0.4305    1.0194 C   0  0  0  0  0  0  0  0  0  0  0  0
    0.1692    0.9915   -0.4554 C   0  0  0  0  0  0  0  0  0  0  0  0
   -0.3285    2.0020    0.3476 O   0  0  0  0  0  0  0  0  0  0  0  0
    1.7427   -0.5463    1.6310 H   0  0  0  0  0  0  0  0  0  0  0  0
    2.3232    1.2268   -0.4157 H   0  0  0  0  0  0  0  0  0  0  0  0
    2.5580   -1.3418   -0.9047 H   0  0  0  0  0  0  0  0  0  0  0  0
    0.1780   -2.2687   -1.1514 H   0  0  0  0  0  0  0  0  0  0  0  0
   -2.4456   -1.4233   -0.5718 H   0  0  0  0  0  0  0  0  0  0  0  0
   -2.6857    0.4303   -0.5673 H   0  0  0  0  0  0  0  0  0  0  0  0
   -1.5334    0.4627    1.6349 H   0  0  0  0  0  0  0  0  0  0  0  0
   -1.2796   -1.3631    1.6232 H   0  0  0  0  0  0  0  0  0  0  0  0
    0.2341    1.2840   -1.5189 H   0  0  0  0  0  0  0  0  0  0  0  0
   -0.2079    2.8964   -0.0445 H   0  0  0  0  0  0  0  0  0  0  0  0
  1  2  1  0
  2  3  1  0
  3  4  2  0
  4  5  1  0
  5  6  1  0
  6  7  1  0
  5  8  1  0
  8  9  1  0
  8  2  1  0
  7  5  1  0
  1 10  1  0
  2 11  1  0
  3 12  1  0
  4 13  1  0
  6 14  1  0
  6 15  1  0
  7 16  1  0
  7 17  1  0
  8 18  1  0
  9 19  1  0
M  END
