
     RDKit          3D

 19 21  0  0  0  0  0  0  0  0999 V2000
    2.4121   -0.7693    0.5638 O   0  0  0  0  0  0  0  0  0  0  0  0
    1.3132   -0.2660   -0.1118 C   0  0  0  0  0  0  0  0  0  0  0  0
    0.5294   -1.2398   -0.9335 C   0  0  0  0  0  0  0  0  0  0  0  0
   -0.7315   -0.6007   -0.3341 C   0  0  0  0  0  0  0  0  0  0  0  0
   -1.2637    0.5874   -1.0352 C   0  0  0  0  0  0  0  0  0  0  0  0
   -0.5104    1.6981   -0.6321 O   0  0  0  0  0  0  0  0  0  0  0  0
   -0.2650    1.5394    0.7071 C   0  0  0  0  0  0  0  0  0  0  0  0
    0.1618    0.0689    0.7648 C   0  0  0  0  0  0  0  0  0  0  0  0
   -0.9131   -0.8723    1.1005 C   0  0  0  0  0  0  0  0  0  0  0  0
    2.9079    0.0319    0.9179 H   0  0  0  0  0  0  0  0  0  0  0  0
    1.6632    0.5765   -0.7784 H   0  0  0  0  0  0  0  0  0  0  0  0
    0.5091   -1.0960   -2.0142 H   0  0  0  0  0  0  0  0  0  0  0  0
    0.5589   -2.2995   -0.5773 H   0  0  0  0  0  0  0  0  0  0  0  0
   -2.3389    0.7554   -0.9635 H   0  0  0  0  0  0  0  0  0  0  0  0
   -1.0316    0.4673   -2.1347 H   0  0  0  0  0  0  0  0  0  0  0  0
   -1.1842    1.6932    1.3276 H   0  0  0  0  0  0  0  0  0  0  0  0
    0.5906    2.1196    1.0553 H   0  0  0  0  0  0  0  0  0  0  0  0
   -1.7642   -0.4771    1.6632 H   0  0  0  0  0  0  0  0  0  0  0  0
   -0.6436   -1.9169    1.4149 H   0  0  0  0  0  0  0  0  0  0  0  0
  1  2  1  0
  2  3  1  0
  3  4  1  0
  4  5  1  0
  5  6  1  0
  6  7  1  0
  7  8  1  0
  8  9  1  0
  8  2  1  0
  8  4  1  0
  9  4  1  0
  1 10  1  0
  2 11  1  0
  3 12  1  0
  3 13  1  0
  5 14  1  0
  5 15  1  0
  7 16  1  0
  7 17  1  0
  9 18  1  0
  9 19  1  0
M  END
