
     RDKit          3D

 15 16  0  0  0  0  0  0  0  0999 V2000
   -1.6443   -0.9473    0.9799 O   0  0  0  0  0  0  0  0  0  0  0  0
   -1.1272   -0.5182   -0.2454 C   0  0  0  0  0  0  0  0  0  0  0  0
   -1.5509    0.9487   -0.3899 C   0  0  0  0  0  0  0  0  0  0  0  0
   -0.5284    1.5585    0.4139 O   0  0  0  0  0  0  0  0  0  0  0  0
    0.6454    0.8331    0.2691 C   0  0  0  0  0  0  0  0  0  0  0  0
    2.0196    0.8593    0.3620 C   0  0  0  0  0  0  0  0  0  0  0  0
    2.4923   -0.3309    0.0346 O   0  0  0  0  0  0  0  0  0  0  0  0
    1.5120   -1.1536   -0.2726 C   0  0  0  0  0  0  0  0  0  0  0  0
    0.3400   -0.4495   -0.1341 C   0  0  0  0  0  0  0  0  0  0  0  0
   -1.0966   -1.6204    1.4208 H   0  0  0  0  0  0  0  0  0  0  0  0
   -1.4880   -1.1246   -1.0879 H   0  0  0  0  0  0  0  0  0  0  0  0
   -1.3637    1.2913   -1.4231 H   0  0  0  0  0  0  0  0  0  0  0  0
   -2.5512    1.1357   -0.0106 H   0  0  0  0  0  0  0  0  0  0  0  0
    2.6652    1.6919    0.6514 H   0  0  0  0  0  0  0  0  0  0  0  0
    1.6759   -2.1739   -0.5682 H   0  0  0  0  0  0  0  0  0  0  0  0
  1  2  1  0
  2  3  1  0
  3  4  1  0
  4  5  1  0
  5  6  2  0
  6  7  1  0
  7  8  1  0
  8  9  2  0
  9  2  1  0
  9  5  1  0
  1 10  1  0
  2 11  1  0
  3 12  1  0
  3 13  1  0
  6 14  1  0
  8 15  1  0
M  END
