
     RDKit          3D

 19 20  0  0  0  0  0  0  0  0999 V2000
   -2.0005    1.3454   -0.5840 O   0  0  0  0  0  0  0  0  0  0  0  0
   -0.7881    0.8346   -0.2196 C   0  0  0  0  0  0  0  0  0  0  0  0
    0.3818    1.7008   -0.6941 C   0  0  0  0  0  0  0  0  0  0  0  0
    1.4721    1.3405    0.0199 O   0  0  0  0  0  0  0  0  0  0  0  0
    1.8064    0.0333    0.0764 C   0  0  0  0  0  0  0  0  0  0  0  0
    0.8061   -0.9848   -0.2391 C   0  0  0  0  0  0  0  0  0  0  0  0
    0.0957   -1.5251    0.8595 O   0  0  0  0  0  0  0  0  0  0  0  0
   -1.0714   -1.6058    0.0693 C   0  0  0  0  0  0  0  0  0  0  0  0
   -0.4913   -0.5291   -0.7938 C   0  0  0  0  0  0  0  0  0  0  0  0
   -2.4189    0.9456   -1.3657 H   0  0  0  0  0  0  0  0  0  0  0  0
   -0.6871    0.7331    0.8947 H   0  0  0  0  0  0  0  0  0  0  0  0
    0.1129    2.7505   -0.4391 H   0  0  0  0  0  0  0  0  0  0  0  0
    0.4832    1.5871   -1.8039 H   0  0  0  0  0  0  0  0  0  0  0  0
    2.7088   -0.1190   -0.5882 H   0  0  0  0  0  0  0  0  0  0  0  0
    2.2163   -0.1713    1.1111 H   0  0  0  0  0  0  0  0  0  0  0  0
    1.2305   -1.8678   -0.8023 H   0  0  0  0  0  0  0  0  0  0  0  0
   -1.9828   -1.2523    0.5982 H   0  0  0  0  0  0  0  0  0  0  0  0
   -1.2227   -2.5878   -0.4058 H   0  0  0  0  0  0  0  0  0  0  0  0
   -0.6510   -0.6281   -1.8846 H   0  0  0  0  0  0  0  0  0  0  0  0
  1  2  1  0
  2  3  1  0
  3  4  1  0
  4  5  1  0
  5  6  1  0
  6  7  1  0
  7  8  1  0
  8  9  1  0
  9  2  1  0
  9  6  1  0
  1 10  1  0
  2 11  1  0
  3 12  1  0
  3 13  1  0
  5 14  1  0
  5 15  1  0
  6 16  1  0
  8 17  1  0
  8 18  1  0
  9 19  1  0
M  END
