
     RDKit          3D

 19 20  0  0  0  0  0  0  0  0999 V2000
    1.5334    1.6436    0.0925 O   0  0  0  0  0  0  0  0  0  0  0  0
    1.2797    0.3801   -0.4396 C   0  0  0  0  0  0  0  0  0  0  0  0
    1.6771   -0.6476    0.5747 C   0  0  0  0  0  0  0  0  0  0  0  0
    0.4923   -1.2148    1.0812 O   0  0  0  0  0  0  0  0  0  0  0  0
   -0.4157   -1.1568    0.0528 C   0  0  0  0  0  0  0  0  0  0  0  0
   -1.8355   -1.0134    0.5088 C   0  0  0  0  0  0  0  0  0  0  0  0
   -2.1758    0.2554    0.6325 C   0  0  0  0  0  0  0  0  0  0  0  0
   -1.0100    1.0832    0.2711 C   0  0  0  0  0  0  0  0  0  0  0  0
   -0.2024    0.1869   -0.6320 C   0  0  0  0  0  0  0  0  0  0  0  0
    2.4977    1.6835    0.2712 H   0  0  0  0  0  0  0  0  0  0  0  0
    1.7835    0.2014   -1.3996 H   0  0  0  0  0  0  0  0  0  0  0  0
    2.2446   -1.4941    0.1132 H   0  0  0  0  0  0  0  0  0  0  0  0
    2.3268   -0.2569    1.3815 H   0  0  0  0  0  0  0  0  0  0  0  0
   -0.3449   -1.9580   -0.6875 H   0  0  0  0  0  0  0  0  0  0  0  0
   -2.4868   -1.8567    0.7074 H   0  0  0  0  0  0  0  0  0  0  0  0
   -3.1790    0.6150    0.9565 H   0  0  0  0  0  0  0  0  0  0  0  0
   -0.3714    1.3271    1.1521 H   0  0  0  0  0  0  0  0  0  0  0  0
   -1.2873    2.0218   -0.2499 H   0  0  0  0  0  0  0  0  0  0  0  0
   -0.5264    0.2002   -1.6710 H   0  0  0  0  0  0  0  0  0  0  0  0
  1  2  1  0
  2  3  1  0
  3  4  1  0
  4  5  1  0
  5  6  1  0
  6  7  2  0
  7  8  1  0
  8  9  1  0
  9  2  1  0
  9  5  1  0
  1 10  1  0
  2 11  1  0
  3 12  1  0
  3 13  1  0
  5 14  1  0
  6 15  1  0
  7 16  1  0
  8 17  1  0
  8 18  1  0
  9 19  1  0
M  END
