
     RDKit          3D

 19 20  0  0  0  0  0  0  0  0999 V2000
    1.7678   -0.0274   -1.4571 O   0  0  0  0  0  0  0  0  0  0  0  0
    1.5306   -0.3132   -0.1161 C   0  0  0  0  0  0  0  0  0  0  0  0
    1.7991    0.8283    0.8402 C   0  0  0  0  0  0  0  0  0  0  0  0
    0.6305    0.4899    1.5589 O   0  0  0  0  0  0  0  0  0  0  0  0
    0.1320   -0.0202    0.3602 C   0  0  0  0  0  0  0  0  0  0  0  0
   -0.6200    0.9711   -0.3975 C   0  0  0  0  0  0  0  0  0  0  0  0
   -1.8995    0.6488   -0.4086 C   0  0  0  0  0  0  0  0  0  0  0  0
   -2.1192   -0.6082    0.3536 C   0  0  0  0  0  0  0  0  0  0  0  0
   -0.7383   -1.2216    0.4750 C   0  0  0  0  0  0  0  0  0  0  0  0
    2.6647    0.3926   -1.4928 H   0  0  0  0  0  0  0  0  0  0  0  0
    1.8607   -1.3034    0.2353 H   0  0  0  0  0  0  0  0  0  0  0  0
    2.6675    0.6192    1.4693 H   0  0  0  0  0  0  0  0  0  0  0  0
    1.7514    1.8065    0.3371 H   0  0  0  0  0  0  0  0  0  0  0  0
   -0.2550    1.8760   -0.9116 H   0  0  0  0  0  0  0  0  0  0  0  0
   -2.7248    1.2089   -0.9043 H   0  0  0  0  0  0  0  0  0  0  0  0
   -2.5596   -0.4604    1.3399 H   0  0  0  0  0  0  0  0  0  0  0  0
   -2.7448   -1.2645   -0.3183 H   0  0  0  0  0  0  0  0  0  0  0  0
   -0.5739   -1.6935    1.4639 H   0  0  0  0  0  0  0  0  0  0  0  0
   -0.5691   -1.9292   -0.3514 H   0  0  0  0  0  0  0  0  0  0  0  0
  1  2  1  0
  2  3  1  0
  3  4  1  0
  4  5  1  0
  5  6  1  0
  6  7  2  0
  7  8  1  0
  8  9  1  0
  5  2  1  0
  9  5  1  0
  1 10  1  0
  2 11  1  0
  3 12  1  0
  3 13  1  0
  6 14  1  0
  7 15  1  0
  8 16  1  0
  8 17  1  0
  9 18  1  0
  9 19  1  0
M  END
