
     RDKit          3D

 19 20  0  0  0  0  0  0  0  0999 V2000
   -0.7163    1.6780    0.9903 O   0  0  0  0  0  0  0  0  0  0  0  0
   -1.1337    0.7538    0.0557 C   0  0  0  0  0  0  0  0  0  0  0  0
   -1.5042   -0.5654    0.7097 C   0  0  0  0  0  0  0  0  0  0  0  0
   -0.7023   -1.6206    0.6975 C   0  0  0  0  0  0  0  0  0  0  0  0
    0.6424   -1.6370    0.0481 C   0  0  0  0  0  0  0  0  0  0  0  0
    1.0363   -0.2149    0.0091 C   0  0  0  0  0  0  0  0  0  0  0  0
    1.2957    0.7097   -1.0224 C   0  0  0  0  0  0  0  0  0  0  0  0
    1.6738    2.0256   -0.6631 O   0  0  0  0  0  0  0  0  0  0  0  0
   -0.0833    0.3855   -0.9203 C   0  0  0  0  0  0  0  0  0  0  0  0
   -1.4176    2.3977    1.0746 H   0  0  0  0  0  0  0  0  0  0  0  0
   -2.0480    1.1246   -0.4803 H   0  0  0  0  0  0  0  0  0  0  0  0
   -2.4855   -0.5707    1.1899 H   0  0  0  0  0  0  0  0  0  0  0  0
   -1.0472   -2.5172    1.1873 H   0  0  0  0  0  0  0  0  0  0  0  0
    0.4794   -1.9882   -1.0048 H   0  0  0  0  0  0  0  0  0  0  0  0
    1.3500   -2.3073    0.5608 H   0  0  0  0  0  0  0  0  0  0  0  0
    1.0717    0.1912    1.0654 H   0  0  0  0  0  0  0  0  0  0  0  0
    1.8515    0.4064   -1.9371 H   0  0  0  0  0  0  0  0  0  0  0  0
    2.2347    2.0306    0.1502 H   0  0  0  0  0  0  0  0  0  0  0  0
   -0.4973   -0.2817   -1.7106 H   0  0  0  0  0  0  0  0  0  0  0  0
  1  2  1  0
  2  3  1  0
  3  4  2  0
  4  5  1  0
  5  6  1  0
  6  7  1  0
  7  8  1  0
  7  9  1  0
  9  2  1  0
  9  6  1  0
  1 10  1  0
  2 11  1  0
  3 12  1  0
  4 13  1  0
  5 14  1  0
  5 15  1  0
  6 16  1  0
  7 17  1  0
  8 18  1  0
  9 19  1  0
M  END
