
     RDKit          3D

 21 22  0  0  0  0  0  0  0  0999 V2000
   -0.8641   -0.0395    2.0590 O   0  0  0  0  0  0  0  0  0  0  0  0
   -0.1886   -0.6341    0.9933 C   0  0  0  0  0  0  0  0  0  0  0  0
   -1.2676   -1.0796   -0.0031 C   0  0  0  0  0  0  0  0  0  0  0  0
   -1.4541    0.0936   -0.9453 C   0  0  0  0  0  0  0  0  0  0  0  0
   -0.6394    1.2333   -0.3179 C   0  0  0  0  0  0  0  0  0  0  0  0
    0.5211    0.4058    0.2192 C   0  0  0  0  0  0  0  0  0  0  0  0
    1.8393    0.9190    0.4304 C   0  0  0  0  0  0  0  0  0  0  0  0
    1.5633    0.0254   -0.7651 C   0  0  0  0  0  0  0  0  0  0  0  0
    2.1037   -1.2576   -0.7838 O   0  0  0  0  0  0  0  0  0  0  0  0
   -1.8368    0.0426    1.9026 H   0  0  0  0  0  0  0  0  0  0  0  0
    0.4019   -1.4605    1.3681 H   0  0  0  0  0  0  0  0  0  0  0  0
   -2.2010   -1.3016    0.5209 H   0  0  0  0  0  0  0  0  0  0  0  0
   -0.8706   -1.9402   -0.5912 H   0  0  0  0  0  0  0  0  0  0  0  0
   -2.4975    0.3603   -1.0946 H   0  0  0  0  0  0  0  0  0  0  0  0
   -0.9148   -0.1165   -1.9159 H   0  0  0  0  0  0  0  0  0  0  0  0
   -1.1846    1.6731    0.5314 H   0  0  0  0  0  0  0  0  0  0  0  0
   -0.2807    1.9435   -1.0623 H   0  0  0  0  0  0  0  0  0  0  0  0
    2.4744    0.5485    1.2524 H   0  0  0  0  0  0  0  0  0  0  0  0
    2.0731    1.9733    0.1352 H   0  0  0  0  0  0  0  0  0  0  0  0
    1.5256    0.4857   -1.7810 H   0  0  0  0  0  0  0  0  0  0  0  0
    1.6974   -1.8745   -0.1524 H   0  0  0  0  0  0  0  0  0  0  0  0
  1  2  1  0
  2  3  1  0
  3  4  1  0
  4  5  1  0
  5  6  1  0
  6  7  1  0
  7  8  1  0
  8  9  1  0
  6  2  1  0
  8  6  1  0
  1 10  1  0
  2 11  1  0
  3 12  1  0
  3 13  1  0
  4 14  1  0
  4 15  1  0
  5 16  1  0
  5 17  1  0
  7 18  1  0
  7 19  1  0
  8 20  1  0
  9 21  1  0
M  END
