
     RDKit          3D

 17 19  0  0  0  0  0  0  0  0999 V2000
    3.0152    0.1217    0.1522 O   0  0  0  0  0  0  0  0  0  0  0  0
    1.7722   -0.1785   -0.3587 C   0  0  0  0  0  0  0  0  0  0  0  0
    0.7547   -0.6113    0.5948 C   0  0  0  0  0  0  0  0  0  0  0  0
   -0.6004   -0.9877   -0.0149 C   0  0  0  0  0  0  0  0  0  0  0  0
   -1.4626   -1.5241    0.9116 O   0  0  0  0  0  0  0  0  0  0  0  0
   -0.7556    0.4357   -0.3807 C   0  0  0  0  0  0  0  0  0  0  0  0
   -1.8373    1.0787   -0.8741 C   0  0  0  0  0  0  0  0  0  0  0  0
   -1.6767    1.1229    0.5664 O   0  0  0  0  0  0  0  0  0  0  0  0
    0.6432    0.7781   -0.1212 C   0  0  0  0  0  0  0  0  0  0  0  0
    3.6018    0.6182   -0.4553 H   0  0  0  0  0  0  0  0  0  0  0  0
    1.7406   -0.6669   -1.3739 H   0  0  0  0  0  0  0  0  0  0  0  0
    0.8452   -0.5395    1.6788 H   0  0  0  0  0  0  0  0  0  0  0  0
   -0.3957   -1.6985   -0.8552 H   0  0  0  0  0  0  0  0  0  0  0  0
   -1.9877   -2.2475    0.4881 H   0  0  0  0  0  0  0  0  0  0  0  0
   -2.7436    0.5232   -1.2251 H   0  0  0  0  0  0  0  0  0  0  0  0
   -1.8296    2.1189   -1.2687 H   0  0  0  0  0  0  0  0  0  0  0  0
    0.9164    1.6564    0.5045 H   0  0  0  0  0  0  0  0  0  0  0  0
  1  2  1  0
  2  3  1  0
  3  4  1  0
  4  5  1  0
  4  6  1  0
  6  7  1  0
  7  8  1  0
  6  9  1  0
  9  2  1  0
  9  3  1  0
  8  6  1  0
  1 10  1  0
  2 11  1  0
  3 12  1  0
  4 13  1  0
  5 14  1  0
  7 15  1  0
  7 16  1  0
  9 17  1  0
M  END
