
     RDKit          3D

 21 22  0  0  0  0  0  0  0  0999 V2000
   -2.9793    0.4902    0.3108 O   0  0  0  0  0  0  0  0  0  0  0  0
   -1.7127    0.3128   -0.2472 C   0  0  0  0  0  0  0  0  0  0  0  0
   -0.8682    1.5066    0.0116 C   0  0  0  0  0  0  0  0  0  0  0  0
    0.4596    1.5503   -0.1242 C   0  0  0  0  0  0  0  0  0  0  0  0
    1.5095    0.6486   -0.5089 C   0  0  0  0  0  0  0  0  0  0  0  0
    2.0324   -0.2462    0.6386 C   0  0  0  0  0  0  0  0  0  0  0  0
    1.3337   -0.7577   -0.5835 C   0  0  0  0  0  0  0  0  0  0  0  0
    0.0037   -1.3820   -0.5264 C   0  0  0  0  0  0  0  0  0  0  0  0
   -0.9753   -0.8457    0.4323 C   0  0  0  0  0  0  0  0  0  0  0  0
   -2.8797    0.4206    1.2933 H   0  0  0  0  0  0  0  0  0  0  0  0
   -1.7592    0.0739   -1.3182 H   0  0  0  0  0  0  0  0  0  0  0  0
   -1.3826    2.4233    0.3408 H   0  0  0  0  0  0  0  0  0  0  0  0
    0.8098    2.5682    0.1380 H   0  0  0  0  0  0  0  0  0  0  0  0
    2.3455    1.1252   -1.1030 H   0  0  0  0  0  0  0  0  0  0  0  0
    1.5071   -0.2000    1.6039 H   0  0  0  0  0  0  0  0  0  0  0  0
    3.1260   -0.3485    0.7400 H   0  0  0  0  0  0  0  0  0  0  0  0
    2.0334   -1.3330   -1.2649 H   0  0  0  0  0  0  0  0  0  0  0  0
   -0.4428   -1.3839   -1.5571 H   0  0  0  0  0  0  0  0  0  0  0  0
    0.1436   -2.4794   -0.2928 H   0  0  0  0  0  0  0  0  0  0  0  0
   -0.5467   -0.5269    1.3918 H   0  0  0  0  0  0  0  0  0  0  0  0
   -1.7579   -1.6164    0.6252 H   0  0  0  0  0  0  0  0  0  0  0  0
  1  2  1  0
  2  3  1  0
  3  4  2  0
  4  5  1  0
  5  6  1  0
  6  7  1  0
  7  8  1  0
  8  9  1  0
  9  2  1  0
  7  5  1  0
  1 10  1  0
  2 11  1  0
  3 12  1  0
  4 13  1  0
  5 14  1  0
  6 15  1  0
  6 16  1  0
  7 17  1  0
  8 18  1  0
  8 19  1  0
  9 20  1  0
  9 21  1  0
M  END
