
     RDKit          3D

 15 16  0  0  0  0  0  0  0  0999 V2000
    1.5357    0.9129   -0.9595 O   0  0  0  0  0  0  0  0  0  0  0  0
    1.1948   -0.4236   -0.7247 C   0  0  0  0  0  0  0  0  0  0  0  0
    0.5442   -0.7555    0.5658 C   0  0  0  0  0  0  0  0  0  0  0  0
    0.0409    0.4109    1.3262 C   0  0  0  0  0  0  0  0  0  0  0  0
   -1.0132    0.9350    0.7432 C   0  0  0  0  0  0  0  0  0  0  0  0
   -1.3412    0.1830   -0.4744 C   0  0  0  0  0  0  0  0  0  0  0  0
   -0.2474   -0.7882   -0.7060 C   0  0  0  0  0  0  0  0  0  0  0  0
    2.1528    1.1874   -0.2093 H   0  0  0  0  0  0  0  0  0  0  0  0
    1.8870   -1.1392   -1.1813 H   0  0  0  0  0  0  0  0  0  0  0  0
    0.6627   -1.7369    1.0530 H   0  0  0  0  0  0  0  0  0  0  0  0
    0.4873    0.7738    2.2360 H   0  0  0  0  0  0  0  0  0  0  0  0
   -1.5777    1.8224    1.1176 H   0  0  0  0  0  0  0  0  0  0  0  0
   -2.2777   -0.4289   -0.2857 H   0  0  0  0  0  0  0  0  0  0  0  0
   -1.5393    0.8429   -1.3510 H   0  0  0  0  0  0  0  0  0  0  0  0
   -0.5089   -1.7961   -1.1501 H   0  0  0  0  0  0  0  0  0  0  0  0
  1  2  1  0
  2  3  1  0
  3  4  1  0
  4  5  2  0
  5  6  1  0
  6  7  1  0
  7  2  1  0
  7  3  1  0
  1  8  1  0
  2  9  1  0
  3 10  1  0
  4 11  1  0
  5 12  1  0
  6 13  1  0
  6 14  1  0
  7 15  1  0
M  END
