
     RDKit          3D

 17 18  0  0  0  0  0  0  0  0999 V2000
   -1.6947   -0.9007   -1.2568 O   0  0  0  0  0  0  0  0  0  0  0  0
   -1.0873   -0.3862   -0.1552 C   0  0  0  0  0  0  0  0  0  0  0  0
   -0.6835    1.0900   -0.3503 C   0  0  0  0  0  0  0  0  0  0  0  0
    0.7215    1.0145    0.1630 C   0  0  0  0  0  0  0  0  0  0  0  0
    1.2615   -0.1657   -0.6498 C   0  0  0  0  0  0  0  0  0  0  0  0
    0.2428   -0.9518    0.1860 C   0  0  0  0  0  0  0  0  0  0  0  0
    0.6666    0.0100    1.3081 C   0  0  0  0  0  0  0  0  0  0  0  0
   -2.2611   -1.6680   -0.9759 H   0  0  0  0  0  0  0  0  0  0  0  0
   -1.7172   -0.3913    0.7702 H   0  0  0  0  0  0  0  0  0  0  0  0
   -0.6259    1.2813   -1.4458 H   0  0  0  0  0  0  0  0  0  0  0  0
   -1.3378    1.7657    0.1940 H   0  0  0  0  0  0  0  0  0  0  0  0
    1.3210    1.8731    0.2610 H   0  0  0  0  0  0  0  0  0  0  0  0
    0.9969   -0.0445   -1.6998 H   0  0  0  0  0  0  0  0  0  0  0  0
    2.2870   -0.4163   -0.3848 H   0  0  0  0  0  0  0  0  0  0  0  0
    0.4051   -1.9836    0.3324 H   0  0  0  0  0  0  0  0  0  0  0  0
   -0.1451    0.1462    2.0216 H   0  0  0  0  0  0  0  0  0  0  0  0
    1.6502   -0.2726    1.6822 H   0  0  0  0  0  0  0  0  0  0  0  0
  1  2  1  0
  2  3  1  0
  3  4  1  0
  4  5  1  0
  5  6  1  0
  6  7  1  0
  6  2  1  0
  7  4  1  0
  1  8  1  0
  2  9  1  0
  3 10  1  0
  3 11  1  0
  4 12  1  0
  5 13  1  0
  5 14  1  0
  6 15  1  0
  7 16  1  0
  7 17  1  0
M  END
