
     RDKit          3D

 19 22  0  0  0  0  0  0  0  0999 V2000
    2.6059    0.3794    0.5144 O   0  0  0  0  0  0  0  0  0  0  0  0
    1.3478    0.2758   -0.0977 C   0  0  0  0  0  0  0  0  0  0  0  0
    0.4873    1.4248    0.2799 C   0  0  0  0  0  0  0  0  0  0  0  0
   -0.9097    1.2079   -0.1677 C   0  0  0  0  0  0  0  0  0  0  0  0
   -1.2005    0.0651   -0.9973 C   0  0  0  0  0  0  0  0  0  0  0  0
   -1.5013    0.0686    0.5344 C   0  0  0  0  0  0  0  0  0  0  0  0
   -0.6031   -1.0837    0.7279 C   0  0  0  0  0  0  0  0  0  0  0  0
    0.7105   -1.0455    0.1193 C   0  0  0  0  0  0  0  0  0  0  0  0
   -0.4584   -1.1848   -0.7644 C   0  0  0  0  0  0  0  0  0  0  0  0
    2.8829   -0.5608    0.7009 H   0  0  0  0  0  0  0  0  0  0  0  0
    1.5615    0.3680   -1.2036 H   0  0  0  0  0  0  0  0  0  0  0  0
    0.9431    2.3684   -0.1027 H   0  0  0  0  0  0  0  0  0  0  0  0
    0.5363    1.5287    1.4032 H   0  0  0  0  0  0  0  0  0  0  0  0
   -1.5435    2.1055   -0.2891 H   0  0  0  0  0  0  0  0  0  0  0  0
   -2.0543    0.0926   -1.6748 H   0  0  0  0  0  0  0  0  0  0  0  0
   -2.5624   -0.0327    0.7546 H   0  0  0  0  0  0  0  0  0  0  0  0
   -0.8916   -1.9375    1.3385 H   0  0  0  0  0  0  0  0  0  0  0  0
    1.3394   -1.9507    0.2277 H   0  0  0  0  0  0  0  0  0  0  0  0
   -0.6898   -2.0890   -1.3034 H   0  0  0  0  0  0  0  0  0  0  0  0
  1  2  1  0
  2  3  1  0
  3  4  1  0
  4  5  1  0
  5  6  1  0
  6  7  1  0
  7  8  1  0
  8  9  1  0
  8  2  1  0
  6  4  1  0
  9  7  1  0
  9  5  1  0
  1 10  1  0
  2 11  1  0
  3 12  1  0
  3 13  1  0
  4 14  1  0
  5 15  1  0
  6 16  1  0
  7 17  1  0
  8 18  1  0
  9 19  1  0
M  END
