
     RDKit          3D

 23 24  0  0  0  0  0  0  0  0999 V2000
   -1.3490    0.5820    1.8752 O   0  0  0  0  0  0  0  0  0  0  0  0
   -1.2622    0.0762    0.6046 C   0  0  0  0  0  0  0  0  0  0  0  0
   -0.6039    1.0277   -0.3799 C   0  0  0  0  0  0  0  0  0  0  0  0
    0.7286    1.4528    0.1645 C   0  0  0  0  0  0  0  0  0  0  0  0
    1.6420    0.2569    0.1505 C   0  0  0  0  0  0  0  0  0  0  0  0
    1.0263   -0.8423    0.9804 C   0  0  0  0  0  0  0  0  0  0  0  0
   -0.3639   -1.1343    0.4883 C   0  0  0  0  0  0  0  0  0  0  0  0
   -0.2830   -1.2873   -1.0321 C   0  0  0  0  0  0  0  0  0  0  0  0
   -0.4379    0.1147   -1.5905 C   0  0  0  0  0  0  0  0  0  0  0  0
   -2.2022    1.1203    1.9139 H   0  0  0  0  0  0  0  0  0  0  0  0
   -2.2521   -0.1891    0.1731 H   0  0  0  0  0  0  0  0  0  0  0  0
   -1.2999    1.8520   -0.5619 H   0  0  0  0  0  0  0  0  0  0  0  0
    0.5998    1.7440    1.2335 H   0  0  0  0  0  0  0  0  0  0  0  0
    1.1391    2.3271   -0.3501 H   0  0  0  0  0  0  0  0  0  0  0  0
    1.8024   -0.1578   -0.8636 H   0  0  0  0  0  0  0  0  0  0  0  0
    2.6661    0.4916    0.5402 H   0  0  0  0  0  0  0  0  0  0  0  0
    1.6254   -1.7611    0.8380 H   0  0  0  0  0  0  0  0  0  0  0  0
    1.0764   -0.5770    2.0461 H   0  0  0  0  0  0  0  0  0  0  0  0
   -0.8030   -2.0280    0.9429 H   0  0  0  0  0  0  0  0  0  0  0  0
    0.6548   -1.7735   -1.3476 H   0  0  0  0  0  0  0  0  0  0  0  0
   -1.1524   -1.9176   -1.3599 H   0  0  0  0  0  0  0  0  0  0  0  0
    0.4035    0.4187   -2.2309 H   0  0  0  0  0  0  0  0  0  0  0  0
   -1.3550    0.2039   -2.2346 H   0  0  0  0  0  0  0  0  0  0  0  0
  1  2  1  0
  2  3  1  0
  3  4  1  0
  4  5  1  0
  5  6  1  0
  6  7  1  0
  7  8  1  0
  8  9  1  0
  7  2  1  0
  9  3  1  0
  1 10  1  0
  2 11  1  0
  3 12  1  0
  4 13  1  0
  4 14  1  0
  5 15  1  0
  5 16  1  0
  6 17  1  0
  6 18  1  0
  7 19  1  0
  8 20  1  0
  8 21  1  0
  9 22  1  0
  9 23  1  0
M  END
