
     RDKit          3D

 21 22  0  0  0  0  0  0  0  0999 V2000
   -2.8216   -0.5690    0.2342 O   0  0  0  0  0  0  0  0  0  0  0  0
   -1.5845   -0.4555   -0.3205 C   0  0  0  0  0  0  0  0  0  0  0  0
   -1.2764    0.9427   -0.8446 C   0  0  0  0  0  0  0  0  0  0  0  0
    0.1988    0.7521   -1.2272 C   0  0  0  0  0  0  0  0  0  0  0  0
    0.7198   -0.1055   -0.1379 C   0  0  0  0  0  0  0  0  0  0  0  0
    1.9557    0.3564    0.5408 C   0  0  0  0  0  0  0  0  0  0  0  0
    1.9168   -0.9310   -0.2126 C   0  0  0  0  0  0  0  0  0  0  0  0
   -0.4472   -0.6013    0.6804 C   0  0  0  0  0  0  0  0  0  0  0  0
   -0.5952    0.2852    1.7527 O   0  0  0  0  0  0  0  0  0  0  0  0
   -2.8891   -0.4367    1.1969 H   0  0  0  0  0  0  0  0  0  0  0  0
   -1.3842   -1.1487   -1.1443 H   0  0  0  0  0  0  0  0  0  0  0  0
   -1.8928    1.2358   -1.6857 H   0  0  0  0  0  0  0  0  0  0  0  0
   -1.2707    1.6332    0.0128 H   0  0  0  0  0  0  0  0  0  0  0  0
    0.2009    0.3044   -2.2290 H   0  0  0  0  0  0  0  0  0  0  0  0
    0.6365    1.7731   -1.2530 H   0  0  0  0  0  0  0  0  0  0  0  0
    2.5152    1.2137    0.0876 H   0  0  0  0  0  0  0  0  0  0  0  0
    1.9740    0.3841    1.6430 H   0  0  0  0  0  0  0  0  0  0  0  0
    1.9208   -1.8551    0.4316 H   0  0  0  0  0  0  0  0  0  0  0  0
    2.5672   -1.0217   -1.0910 H   0  0  0  0  0  0  0  0  0  0  0  0
   -0.3132   -1.6237    1.0327 H   0  0  0  0  0  0  0  0  0  0  0  0
   -0.1309   -0.1322    2.5332 H   0  0  0  0  0  0  0  0  0  0  0  0
  1  2  1  0
  2  3  1  0
  3  4  1  0
  4  5  1  0
  5  6  1  0
  6  7  1  0
  5  8  1  0
  8  9  1  0
  8  2  1  0
  7  5  1  0
  1 10  1  0
  2 11  1  0
  3 12  1  0
  3 13  1  0
  4 14  1  0
  4 15  1  0
  6 16  1  0
  6 17  1  0
  7 18  1  0
  7 19  1  0
  8 20  1  0
  9 21  1  0
M  END
