
     RDKit          3D

 17 18  0  0  0  0  0  0  0  0999 V2000
   -1.4531    1.4865   -0.2560 O   0  0  0  0  0  0  0  0  0  0  0  0
   -0.9928    0.4210    0.5023 C   0  0  0  0  0  0  0  0  0  0  0  0
   -1.5491   -0.8219   -0.0923 C   0  0  0  0  0  0  0  0  0  0  0  0
   -0.6078   -1.5634   -0.6530 C   0  0  0  0  0  0  0  0  0  0  0  0
    0.6964   -0.8765   -0.4858 C   0  0  0  0  0  0  0  0  0  0  0  0
    1.0320    0.0084   -1.5235 O   0  0  0  0  0  0  0  0  0  0  0  0
    1.2265    1.0311   -0.5756 C   0  0  0  0  0  0  0  0  0  0  0  0
    0.4857    0.2432    0.4738 C   0  0  0  0  0  0  0  0  0  0  0  0
    1.0835    0.1410    1.7047 O   0  0  0  0  0  0  0  0  0  0  0  0
   -1.0852    2.3552    0.0297 H   0  0  0  0  0  0  0  0  0  0  0  0
   -1.3228    0.4535    1.5572 H   0  0  0  0  0  0  0  0  0  0  0  0
   -2.6250   -1.0834   -0.0623 H   0  0  0  0  0  0  0  0  0  0  0  0
   -0.8221   -2.5139   -1.1415 H   0  0  0  0  0  0  0  0  0  0  0  0
    1.4989   -1.6034   -0.2263 H   0  0  0  0  0  0  0  0  0  0  0  0
    2.3054    1.1187   -0.3175 H   0  0  0  0  0  0  0  0  0  0  0  0
    0.7917    2.0033   -0.8488 H   0  0  0  0  0  0  0  0  0  0  0  0
    1.3378   -0.7993    1.9148 H   0  0  0  0  0  0  0  0  0  0  0  0
  1  2  1  0
  2  3  1  0
  3  4  2  0
  4  5  1  0
  5  6  1  0
  6  7  1  0
  7  8  1  0
  8  9  1  0
  8  2  1  0
  8  5  1  0
  1 10  1  0
  2 11  1  0
  3 12  1  0
  4 13  1  0
  5 14  1  0
  7 15  1  0
  7 16  1  0
  9 17  1  0
M  END
