
     RDKit          3D

 19 21  0  0  0  0  0  0  0  0999 V2000
   -0.0869    2.2715   -0.3514 O   0  0  0  0  0  0  0  0  0  0  0  0
   -0.1503    0.9935    0.1782 C   0  0  0  0  0  0  0  0  0  0  0  0
   -1.2209    0.2441   -0.6183 C   0  0  0  0  0  0  0  0  0  0  0  0
   -2.0150   -0.8026    0.1445 C   0  0  0  0  0  0  0  0  0  0  0  0
   -0.8190   -1.1681   -0.6195 C   0  0  0  0  0  0  0  0  0  0  0  0
    0.5467   -1.2404    0.0110 C   0  0  0  0  0  0  0  0  0  0  0  0
    1.0533    0.1647   -0.0458 C   0  0  0  0  0  0  0  0  0  0  0  0
    2.3837    0.4845    0.4890 C   0  0  0  0  0  0  0  0  0  0  0  0
    2.0801    0.5365   -0.8683 O   0  0  0  0  0  0  0  0  0  0  0  0
   -0.8979    2.7536   -0.0163 H   0  0  0  0  0  0  0  0  0  0  0  0
   -0.3952    0.9808    1.2628 H   0  0  0  0  0  0  0  0  0  0  0  0
   -1.6572    0.7202   -1.4997 H   0  0  0  0  0  0  0  0  0  0  0  0
   -2.0326   -0.6285    1.2276 H   0  0  0  0  0  0  0  0  0  0  0  0
   -2.9910   -1.0534   -0.3078 H   0  0  0  0  0  0  0  0  0  0  0  0
   -0.9552   -1.8274   -1.5161 H   0  0  0  0  0  0  0  0  0  0  0  0
    0.3795   -1.4869    1.0934 H   0  0  0  0  0  0  0  0  0  0  0  0
    1.2079   -1.9809   -0.4647 H   0  0  0  0  0  0  0  0  0  0  0  0
    2.6079    1.4317    1.0278 H   0  0  0  0  0  0  0  0  0  0  0  0
    2.9619   -0.3930    0.8736 H   0  0  0  0  0  0  0  0  0  0  0  0
  1  2  1  0
  2  3  1  0
  3  4  1  0
  4  5  1  0
  5  6  1  0
  6  7  1  0
  7  8  1  0
  8  9  1  0
  7  2  1  0
  5  3  1  0
  9  7  1  0
  1 10  1  0
  2 11  1  0
  3 12  1  0
  4 13  1  0
  4 14  1  0
  5 15  1  0
  6 16  1  0
  6 17  1  0
  8 18  1  0
  8 19  1  0
M  END
