
     RDKit          3D

 19 20  0  0  0  0  0  0  0  0999 V2000
    3.1452   -0.8747    0.2911 O   0  0  0  0  0  0  0  0  0  0  0  0
    1.9693   -0.3886   -0.2435 C   0  0  0  0  0  0  0  0  0  0  0  0
    1.0016    0.1559    0.7731 C   0  0  0  0  0  0  0  0  0  0  0  0
    0.2580    1.3495    0.3451 C   0  0  0  0  0  0  0  0  0  0  0  0
   -0.9986    1.4296   -0.0340 C   0  0  0  0  0  0  0  0  0  0  0  0
   -2.0916    0.4206   -0.1720 C   0  0  0  0  0  0  0  0  0  0  0  0
   -1.5863   -0.9487   -0.4929 C   0  0  0  0  0  0  0  0  0  0  0  0
   -0.2856   -0.9668   -0.9293 O   0  0  0  0  0  0  0  0  0  0  0  0
    0.6589   -1.0943    0.0603 C   0  0  0  0  0  0  0  0  0  0  0  0
    3.8008   -0.1100    0.2781 H   0  0  0  0  0  0  0  0  0  0  0  0
    2.0876    0.1148   -1.2223 H   0  0  0  0  0  0  0  0  0  0  0  0
    1.2464    0.0903    1.8495 H   0  0  0  0  0  0  0  0  0  0  0  0
    0.8190    2.2545    0.3472 H   0  0  0  0  0  0  0  0  0  0  0  0
   -1.2829    2.4625   -0.3004 H   0  0  0  0  0  0  0  0  0  0  0  0
   -2.7016    0.3409    0.7653 H   0  0  0  0  0  0  0  0  0  0  0  0
   -2.7951    0.8126   -0.9510 H   0  0  0  0  0  0  0  0  0  0  0  0
   -2.2183   -1.3350   -1.3447 H   0  0  0  0  0  0  0  0  0  0  0  0
   -1.7654   -1.6855    0.3321 H   0  0  0  0  0  0  0  0  0  0  0  0
    0.7384   -2.0273    0.6482 H   0  0  0  0  0  0  0  0  0  0  0  0
  1  2  1  0
  2  3  1  0
  3  4  1  0
  4  5  2  0
  5  6  1  0
  6  7  1  0
  7  8  1  0
  8  9  1  0
  9  2  1  0
  9  3  1  0
  1 10  1  0
  2 11  1  0
  3 12  1  0
  4 13  1  0
  5 14  1  0
  6 15  1  0
  6 16  1  0
  7 17  1  0
  7 18  1  0
  9 19  1  0
M  END
