
     RDKit          3D

 18 19  0  0  0  0  0  0  0  0999 V2000
    1.5838   -1.1305   -0.8517 O   0  0  0  0  0  0  0  0  0  0  0  0
    1.2466   -0.5371    0.3617 C   0  0  0  0  0  0  0  0  0  0  0  0
    1.3976    0.9195    0.2032 C   0  0  0  0  0  0  0  0  0  0  0  0
    0.3419    1.6758   -0.0467 C   0  0  0  0  0  0  0  0  0  0  0  0
   -0.9952    1.1113   -0.1744 C   0  0  0  0  0  0  0  0  0  0  0  0
   -1.2932   -0.0183   -1.1197 C   0  0  0  0  0  0  0  0  0  0  0  0
   -1.2445   -0.1928    0.4008 C   0  0  0  0  0  0  0  0  0  0  0  0
   -0.0830   -0.9861    0.8777 C   0  0  0  0  0  0  0  0  0  0  0  0
    1.1655   -2.0255   -0.9617 H   0  0  0  0  0  0  0  0  0  0  0  0
    2.0274   -0.8640    1.0893 H   0  0  0  0  0  0  0  0  0  0  0  0
    2.3910    1.3417    0.2962 H   0  0  0  0  0  0  0  0  0  0  0  0
    0.5260    2.7425   -0.1518 H   0  0  0  0  0  0  0  0  0  0  0  0
   -1.8304    1.8662   -0.0702 H   0  0  0  0  0  0  0  0  0  0  0  0
   -0.4704   -0.4360   -1.7253 H   0  0  0  0  0  0  0  0  0  0  0  0
   -2.2628   -0.0294   -1.6180 H   0  0  0  0  0  0  0  0  0  0  0  0
   -2.1957   -0.3792    0.9391 H   0  0  0  0  0  0  0  0  0  0  0  0
   -0.2219   -2.0492    0.5627 H   0  0  0  0  0  0  0  0  0  0  0  0
   -0.0827   -1.0091    1.9886 H   0  0  0  0  0  0  0  0  0  0  0  0
  1  2  1  0
  2  3  1  0
  3  4  2  0
  4  5  1  0
  5  6  1  0
  6  7  1  0
  7  8  1  0
  8  2  1  0
  7  5  1  0
  1  9  1  0
  2 10  1  0
  3 11  1  0
  4 12  1  0
  5 13  1  0
  6 14  1  0
  6 15  1  0
  7 16  1  0
  8 17  1  0
  8 18  1  0
M  END
