
     RDKit          3D

 21 22  0  0  0  0  0  0  0  0999 V2000
   -2.1933    1.3466   -0.9092 O   0  0  0  0  0  0  0  0  0  0  0  0
   -1.5391    0.6934    0.1074 C   0  0  0  0  0  0  0  0  0  0  0  0
   -1.9137   -0.7679    0.1953 C   0  0  0  0  0  0  0  0  0  0  0  0
   -0.5990   -1.4160    0.5727 C   0  0  0  0  0  0  0  0  0  0  0  0
    0.3469   -0.6640   -0.3221 C   0  0  0  0  0  0  0  0  0  0  0  0
    1.7823   -0.7418    0.0273 C   0  0  0  0  0  0  0  0  0  0  0  0
    2.2247    0.6827   -0.3137 C   0  0  0  0  0  0  0  0  0  0  0  0
    1.0127    1.5011   -0.0526 C   0  0  0  0  0  0  0  0  0  0  0  0
   -0.0539    0.7329   -0.0526 C   0  0  0  0  0  0  0  0  0  0  0  0
   -2.4240    2.2838   -0.6240 H   0  0  0  0  0  0  0  0  0  0  0  0
   -1.8614    1.1583    1.0671 H   0  0  0  0  0  0  0  0  0  0  0  0
   -2.7189   -0.9677    0.9223 H   0  0  0  0  0  0  0  0  0  0  0  0
   -2.1525   -1.1140   -0.8321 H   0  0  0  0  0  0  0  0  0  0  0  0
   -0.3478   -1.1798    1.6194 H   0  0  0  0  0  0  0  0  0  0  0  0
   -0.5740   -2.4978    0.3520 H   0  0  0  0  0  0  0  0  0  0  0  0
    0.1697   -0.9666   -1.3725 H   0  0  0  0  0  0  0  0  0  0  0  0
    1.9956   -0.9684    1.0928 H   0  0  0  0  0  0  0  0  0  0  0  0
    2.2912   -1.4463   -0.6657 H   0  0  0  0  0  0  0  0  0  0  0  0
    2.5529    0.7780   -1.3548 H   0  0  0  0  0  0  0  0  0  0  0  0
    2.9957    0.9528    0.4248 H   0  0  0  0  0  0  0  0  0  0  0  0
    1.0061    2.6007    0.1182 H   0  0  0  0  0  0  0  0  0  0  0  0
  1  2  1  0
  2  3  1  0
  3  4  1  0
  4  5  1  0
  5  6  1  0
  6  7  1  0
  7  8  1  0
  8  9  2  0
  9  2  1  0
  9  5  1  0
  1 10  1  0
  2 11  1  0
  3 12  1  0
  3 13  1  0
  4 14  1  0
  4 15  1  0
  5 16  1  0
  6 17  1  0
  6 18  1  0
  7 19  1  0
  7 20  1  0
  8 21  1  0
M  END
