
     RDKit          3D

 21 23  0  0  0  0  0  0  0  0999 V2000
    1.7283   -0.8665    1.4446 O   0  0  0  0  0  0  0  0  0  0  0  0
    1.5233   -0.6085    0.1092 C   0  0  0  0  0  0  0  0  0  0  0  0
    1.3414    0.8605   -0.1999 C   0  0  0  0  0  0  0  0  0  0  0  0
   -0.0564    1.0120   -0.7476 C   0  0  0  0  0  0  0  0  0  0  0  0
   -0.9683    1.2488    0.4257 C   0  0  0  0  0  0  0  0  0  0  0  0
   -1.5377   -0.0981    0.7582 C   0  0  0  0  0  0  0  0  0  0  0  0
   -1.0241   -1.0947   -0.2040 C   0  0  0  0  0  0  0  0  0  0  0  0
    0.3822   -1.3486   -0.5029 C   0  0  0  0  0  0  0  0  0  0  0  0
   -0.3740   -0.3454   -1.2696 C   0  0  0  0  0  0  0  0  0  0  0  0
    0.9577   -0.7646    2.0225 H   0  0  0  0  0  0  0  0  0  0  0  0
    2.4701   -0.9097   -0.4232 H   0  0  0  0  0  0  0  0  0  0  0  0
    1.4437    1.4093    0.7590 H   0  0  0  0  0  0  0  0  0  0  0  0
    2.0478    1.2478   -0.9317 H   0  0  0  0  0  0  0  0  0  0  0  0
   -0.1517    1.7956   -1.5036 H   0  0  0  0  0  0  0  0  0  0  0  0
   -1.7292    2.0164    0.2200 H   0  0  0  0  0  0  0  0  0  0  0  0
   -0.3932    1.6001    1.3201 H   0  0  0  0  0  0  0  0  0  0  0  0
   -2.6529   -0.0126    0.6197 H   0  0  0  0  0  0  0  0  0  0  0  0
   -1.3984   -0.3551    1.8229 H   0  0  0  0  0  0  0  0  0  0  0  0
   -1.7373   -1.9438   -0.3997 H   0  0  0  0  0  0  0  0  0  0  0  0
    0.6447   -2.3110   -0.9776 H   0  0  0  0  0  0  0  0  0  0  0  0
   -0.5160   -0.5317   -2.3422 H   0  0  0  0  0  0  0  0  0  0  0  0
  1  2  1  0
  2  3  1  0
  3  4  1  0
  4  5  1  0
  5  6  1  0
  6  7  1  0
  7  8  1  0
  8  9  1  0
  8  2  1  0
  9  4  1  0
  9  7  1  0
  1 10  1  0
  2 11  1  0
  3 12  1  0
  3 13  1  0
  4 14  1  0
  5 15  1  0
  5 16  1  0
  6 17  1  0
  6 18  1  0
  7 19  1  0
  8 20  1  0
  9 21  1  0
M  END
