
     RDKit          3D

 19 20  0  0  0  0  0  0  0  0999 V2000
   -0.5250    1.2280    1.4361 O   0  0  0  0  0  0  0  0  0  0  0  0
   -0.7554    1.0779    0.0765 C   0  0  0  0  0  0  0  0  0  0  0  0
   -2.0678    0.3959   -0.1379 C   0  0  0  0  0  0  0  0  0  0  0  0
   -1.7250   -1.0167   -0.4381 C   0  0  0  0  0  0  0  0  0  0  0  0
   -0.4286   -1.1432   -0.6555 C   0  0  0  0  0  0  0  0  0  0  0  0
    0.2783    0.1491   -0.5345 C   0  0  0  0  0  0  0  0  0  0  0  0
    1.4640    0.0642    0.3549 C   0  0  0  0  0  0  0  0  0  0  0  0
    2.6249   -0.7300    0.0725 C   0  0  0  0  0  0  0  0  0  0  0  0
    1.6353   -1.2882    0.9046 O   0  0  0  0  0  0  0  0  0  0  0  0
   -0.3515    2.1854    1.6579 H   0  0  0  0  0  0  0  0  0  0  0  0
   -0.7960    2.0621   -0.4621 H   0  0  0  0  0  0  0  0  0  0  0  0
   -2.6692    0.8631   -0.9560 H   0  0  0  0  0  0  0  0  0  0  0  0
   -2.6997    0.4562    0.7818 H   0  0  0  0  0  0  0  0  0  0  0  0
   -2.4378   -1.8559   -0.4784 H   0  0  0  0  0  0  0  0  0  0  0  0
    0.0544   -2.1069   -0.8977 H   0  0  0  0  0  0  0  0  0  0  0  0
    0.5182    0.4858   -1.5665 H   0  0  0  0  0  0  0  0  0  0  0  0
    1.5392    0.8606    1.1489 H   0  0  0  0  0  0  0  0  0  0  0  0
    3.5679   -0.5172    0.6281 H   0  0  0  0  0  0  0  0  0  0  0  0
    2.7739   -1.1704   -0.9346 H   0  0  0  0  0  0  0  0  0  0  0  0
  1  2  1  0
  2  3  1  0
  3  4  1  0
  4  5  2  0
  5  6  1  0
  6  7  1  0
  7  8  1  0
  8  9  1  0
  6  2  1  0
  9  7  1  0
  1 10  1  0
  2 11  1  0
  3 12  1  0
  3 13  1  0
  4 14  1  0
  5 15  1  0
  6 16  1  0
  7 17  1  0
  8 18  1  0
  8 19  1  0
M  END
