
     RDKit          3D

 17 19  0  0  0  0  0  0  0  0999 V2000
   -1.6567   -1.5466   -0.1280 O   0  0  0  0  0  0  0  0  0  0  0  0
   -1.1469   -0.5082    0.6161 C   0  0  0  0  0  0  0  0  0  0  0  0
   -1.6032    0.8157    0.0860 C   0  0  0  0  0  0  0  0  0  0  0  0
   -0.8848    0.4865   -1.1822 C   0  0  0  0  0  0  0  0  0  0  0  0
    0.0146    0.1387   -0.0217 C   0  0  0  0  0  0  0  0  0  0  0  0
    1.3139   -0.3240   -0.1128 C   0  0  0  0  0  0  0  0  0  0  0  0
    2.4915    0.2881    0.5879 C   0  0  0  0  0  0  0  0  0  0  0  0
    2.2520    0.4600   -0.8194 O   0  0  0  0  0  0  0  0  0  0  0  0
   -0.3954    1.3268    0.5497 O   0  0  0  0  0  0  0  0  0  0  0  0
   -2.1182   -2.2155    0.4419 H   0  0  0  0  0  0  0  0  0  0  0  0
   -1.1506   -0.6303    1.7129 H   0  0  0  0  0  0  0  0  0  0  0  0
   -2.5131    1.2352    0.1885 H   0  0  0  0  0  0  0  0  0  0  0  0
   -1.3241   -0.3760   -1.7196 H   0  0  0  0  0  0  0  0  0  0  0  0
   -0.5342    1.3131   -1.7975 H   0  0  0  0  0  0  0  0  0  0  0  0
    1.4778   -1.4167   -0.3276 H   0  0  0  0  0  0  0  0  0  0  0  0
    2.3930    1.2507    1.1126 H   0  0  0  0  0  0  0  0  0  0  0  0
    3.3845   -0.2976    0.8133 H   0  0  0  0  0  0  0  0  0  0  0  0
  1  2  1  0
  2  3  1  0
  3  4  1  0
  4  5  1  0
  5  6  1  0
  6  7  1  0
  7  8  1  0
  5  9  1  0
  5  2  1  0
  8  6  1  0
  9  3  1  0
  1 10  1  0
  2 11  1  0
  3 12  1  0
  4 13  1  0
  4 14  1  0
  6 15  1  0
  7 16  1  0
  7 17  1  0
M  END
