
     RDKit          3D

 21 22  0  0  0  0  0  0  0  0999 V2000
    3.1010   -0.2150   -0.9101 O   0  0  0  0  0  0  0  0  0  0  0  0
    2.1912    0.2271    0.0040 C   0  0  0  0  0  0  0  0  0  0  0  0
    2.0541   -0.3101    1.3675 C   0  0  0  0  0  0  0  0  0  0  0  0
    1.1244   -0.8105    0.3718 C   0  0  0  0  0  0  0  0  0  0  0  0
   -0.2598   -0.3121    0.2098 C   0  0  0  0  0  0  0  0  0  0  0  0
   -1.2353   -0.1840    1.1048 C   0  0  0  0  0  0  0  0  0  0  0  0
   -2.4704    0.3672    0.4787 C   0  0  0  0  0  0  0  0  0  0  0  0
   -2.2613    0.2338   -0.9956 C   0  0  0  0  0  0  0  0  0  0  0  0
   -0.7615    0.1494   -1.1211 C   0  0  0  0  0  0  0  0  0  0  0  0
    3.9060    0.3152   -1.0232 H   0  0  0  0  0  0  0  0  0  0  0  0
    1.8642    1.2782   -0.1339 H   0  0  0  0  0  0  0  0  0  0  0  0
    2.8601   -0.9961    1.7197 H   0  0  0  0  0  0  0  0  0  0  0  0
    1.7422    0.3923    2.1869 H   0  0  0  0  0  0  0  0  0  0  0  0
    1.2675   -1.8499    0.0120 H   0  0  0  0  0  0  0  0  0  0  0  0
   -1.0805   -0.4664    2.1479 H   0  0  0  0  0  0  0  0  0  0  0  0
   -3.3720   -0.2043    0.7744 H   0  0  0  0  0  0  0  0  0  0  0  0
   -2.6364    1.4384    0.7561 H   0  0  0  0  0  0  0  0  0  0  0  0
   -2.6942   -0.6921   -1.3979 H   0  0  0  0  0  0  0  0  0  0  0  0
   -2.5733    1.1485   -1.5663 H   0  0  0  0  0  0  0  0  0  0  0  0
   -0.4533   -0.6378   -1.8588 H   0  0  0  0  0  0  0  0  0  0  0  0
   -0.3129    1.1282   -1.3191 H   0  0  0  0  0  0  0  0  0  0  0  0
  1  2  1  0
  2  3  1  0
  3  4  1  0
  4  5  1  0
  5  6  2  0
  6  7  1  0
  7  8  1  0
  8  9  1  0
  4  2  1  0
  9  5  1  0
  1 10  1  0
  2 11  1  0
  3 12  1  0
  3 13  1  0
  4 14  1  0
  6 15  1  0
  7 16  1  0
  7 17  1  0
  8 18  1  0
  8 19  1  0
  9 20  1  0
  9 21  1  0
M  END
