
     RDKit          3D

 21 22  0  0  0  0  0  0  0  0999 V2000
   -3.3056   -0.1694    0.5355 O   0  0  0  0  0  0  0  0  0  0  0  0
   -2.2201    0.6288    0.2638 C   0  0  0  0  0  0  0  0  0  0  0  0
   -1.7693    0.9131   -1.1160 C   0  0  0  0  0  0  0  0  0  0  0  0
   -1.0496   -0.1249   -0.3854 C   0  0  0  0  0  0  0  0  0  0  0  0
   -1.2717   -1.4468   -0.7746 O   0  0  0  0  0  0  0  0  0  0  0  0
    0.2491    0.0977    0.3194 C   0  0  0  0  0  0  0  0  0  0  0  0
    1.4035   -0.6216   -0.2885 C   0  0  0  0  0  0  0  0  0  0  0  0
    2.7246   -0.3866    0.4399 C   0  0  0  0  0  0  0  0  0  0  0  0
    2.5173    0.1534   -0.9245 C   0  0  0  0  0  0  0  0  0  0  0  0
   -3.4214   -0.2133    1.5204 H   0  0  0  0  0  0  0  0  0  0  0  0
   -1.9977    1.4009    1.0121 H   0  0  0  0  0  0  0  0  0  0  0  0
   -2.4242    0.5909   -1.9698 H   0  0  0  0  0  0  0  0  0  0  0  0
   -1.2844    1.8884   -1.3195 H   0  0  0  0  0  0  0  0  0  0  0  0
   -1.5812   -2.0016    0.0010 H   0  0  0  0  0  0  0  0  0  0  0  0
    0.1196   -0.2518    1.3728 H   0  0  0  0  0  0  0  0  0  0  0  0
    0.5135    1.1777    0.3922 H   0  0  0  0  0  0  0  0  0  0  0  0
    1.2072   -1.6736   -0.6367 H   0  0  0  0  0  0  0  0  0  0  0  0
    3.4218   -1.2500    0.5492 H   0  0  0  0  0  0  0  0  0  0  0  0
    2.7797    0.3400    1.2468 H   0  0  0  0  0  0  0  0  0  0  0  0
    3.1103   -0.2886   -1.7325 H   0  0  0  0  0  0  0  0  0  0  0  0
    2.2785    1.2371   -1.0715 H   0  0  0  0  0  0  0  0  0  0  0  0
  1  2  1  0
  2  3  1  0
  3  4  1  0
  4  5  1  0
  4  6  1  0
  6  7  1  0
  7  8  1  0
  8  9  1  0
  4  2  1  0
  9  7  1  0
  1 10  1  0
  2 11  1  0
  3 12  1  0
  3 13  1  0
  5 14  1  0
  6 15  1  0
  6 16  1  0
  7 17  1  0
  8 18  1  0
  8 19  1  0
  9 20  1  0
  9 21  1  0
M  END
