
     RDKit          3D

 19 20  0  0  0  0  0  0  0  0999 V2000
    2.7196   -0.8293   -0.2322 O   0  0  0  0  0  0  0  0  0  0  0  0
    1.3401   -0.7846   -0.0392 C   0  0  0  0  0  0  0  0  0  0  0  0
    0.8818    0.2109    1.0069 C   0  0  0  0  0  0  0  0  0  0  0  0
   -0.1444    0.6995    0.0149 C   0  0  0  0  0  0  0  0  0  0  0  0
   -0.0502    2.0953   -0.1449 O   0  0  0  0  0  0  0  0  0  0  0  0
   -1.5530    0.2783    0.2818 C   0  0  0  0  0  0  0  0  0  0  0  0
   -2.2787   -0.7249   -0.4431 C   0  0  0  0  0  0  0  0  0  0  0  0
   -2.4447    0.6215   -0.7490 O   0  0  0  0  0  0  0  0  0  0  0  0
    0.5880    0.0123   -1.0819 C   0  0  0  0  0  0  0  0  0  0  0  0
    3.2215   -0.8323    0.6171 H   0  0  0  0  0  0  0  0  0  0  0  0
    0.9446   -1.8008    0.0585 H   0  0  0  0  0  0  0  0  0  0  0  0
    1.6860    0.9389    1.2440 H   0  0  0  0  0  0  0  0  0  0  0  0
    0.4332   -0.3212    1.8531 H   0  0  0  0  0  0  0  0  0  0  0  0
    0.0997    2.4441    0.7820 H   0  0  0  0  0  0  0  0  0  0  0  0
   -1.8882    0.5181    1.3327 H   0  0  0  0  0  0  0  0  0  0  0  0
   -3.1344   -1.2304    0.0807 H   0  0  0  0  0  0  0  0  0  0  0  0
   -1.7452   -1.3895   -1.1427 H   0  0  0  0  0  0  0  0  0  0  0  0
   -0.0061   -0.5501   -1.7978 H   0  0  0  0  0  0  0  0  0  0  0  0
    1.3305    0.6442   -1.6409 H   0  0  0  0  0  0  0  0  0  0  0  0
  1  2  1  0
  2  3  1  0
  3  4  1  0
  4  5  1  0
  4  6  1  0
  6  7  1  0
  7  8  1  0
  4  9  1  0
  9  2  1  0
  8  6  1  0
  1 10  1  0
  2 11  1  0
  3 12  1  0
  3 13  1  0
  5 14  1  0
  6 15  1  0
  7 16  1  0
  7 17  1  0
  9 18  1  0
  9 19  1  0
M  END
