
     RDKit          3D

 21 22  0  0  0  0  0  0  0  0999 V2000
   -2.3505   -1.3348   -0.4786 O   0  0  0  0  0  0  0  0  0  0  0  0
   -1.2459   -0.7377    0.1762 C   0  0  0  0  0  0  0  0  0  0  0  0
   -1.4527    0.7251    0.1190 C   0  0  0  0  0  0  0  0  0  0  0  0
   -0.2340    1.5617    0.2314 C   0  0  0  0  0  0  0  0  0  0  0  0
    0.9397    1.0648   -0.5355 C   0  0  0  0  0  0  0  0  0  0  0  0
    2.1101    1.2047    0.2407 O   0  0  0  0  0  0  0  0  0  0  0  0
    2.0277   -0.1391    0.6429 C   0  0  0  0  0  0  0  0  0  0  0  0
    1.1448   -0.3806   -0.5617 C   0  0  0  0  0  0  0  0  0  0  0  0
   -0.0043   -1.2741   -0.3999 C   0  0  0  0  0  0  0  0  0  0  0  0
   -2.6272   -2.1652   -0.0635 H   0  0  0  0  0  0  0  0  0  0  0  0
   -1.3670   -1.0576    1.2542 H   0  0  0  0  0  0  0  0  0  0  0  0
   -2.1572    1.0408    0.9450 H   0  0  0  0  0  0  0  0  0  0  0  0
   -2.0024    1.0134   -0.8225 H   0  0  0  0  0  0  0  0  0  0  0  0
    0.0146    1.7645    1.3125 H   0  0  0  0  0  0  0  0  0  0  0  0
   -0.4896    2.5846   -0.1753 H   0  0  0  0  0  0  0  0  0  0  0  0
    1.1275    1.6175   -1.5031 H   0  0  0  0  0  0  0  0  0  0  0  0
    3.0533   -0.5757    0.5681 H   0  0  0  0  0  0  0  0  0  0  0  0
    1.5802   -0.3176    1.6200 H   0  0  0  0  0  0  0  0  0  0  0  0
    1.8122   -0.6841   -1.4218 H   0  0  0  0  0  0  0  0  0  0  0  0
   -0.2146   -1.7704   -1.3945 H   0  0  0  0  0  0  0  0  0  0  0  0
    0.3353   -2.1400    0.2466 H   0  0  0  0  0  0  0  0  0  0  0  0
  1  2  1  0
  2  3  1  0
  3  4  1  0
  4  5  1  0
  5  6  1  0
  6  7  1  0
  7  8  1  0
  8  9  1  0
  9  2  1  0
  8  5  1  0
  1 10  1  0
  2 11  1  0
  3 12  1  0
  3 13  1  0
  4 14  1  0
  4 15  1  0
  5 16  1  0
  7 17  1  0
  7 18  1  0
  8 19  1  0
  9 20  1  0
  9 21  1  0
M  END
