
     RDKit          3D

 21 22  0  0  0  0  0  0  0  0999 V2000
   -0.4390   -0.1730    2.3039 O   0  0  0  0  0  0  0  0  0  0  0  0
   -0.8356   -0.3193    1.0042 C   0  0  0  0  0  0  0  0  0  0  0  0
    0.1828   -1.1006    0.1614 C   0  0  0  0  0  0  0  0  0  0  0  0
    1.5061   -0.4226    0.2009 C   0  0  0  0  0  0  0  0  0  0  0  0
    1.4720    1.0426   -0.0077 C   0  0  0  0  0  0  0  0  0  0  0  0
    0.3356    1.6851    0.3634 O   0  0  0  0  0  0  0  0  0  0  0  0
   -0.8321    0.9894    0.2229 C   0  0  0  0  0  0  0  0  0  0  0  0
   -1.0477    0.4604   -1.1878 C   0  0  0  0  0  0  0  0  0  0  0  0
   -0.4134   -0.9166   -1.2186 C   0  0  0  0  0  0  0  0  0  0  0  0
   -1.2473    0.0300    2.8480 H   0  0  0  0  0  0  0  0  0  0  0  0
   -1.8165   -0.7818    0.8533 H   0  0  0  0  0  0  0  0  0  0  0  0
    0.2520   -2.1351    0.4822 H   0  0  0  0  0  0  0  0  0  0  0  0
    2.0164   -0.7063    1.1605 H   0  0  0  0  0  0  0  0  0  0  0  0
    2.1478   -0.8665   -0.6140 H   0  0  0  0  0  0  0  0  0  0  0  0
    2.3246    1.4898    0.5852 H   0  0  0  0  0  0  0  0  0  0  0  0
    1.7122    1.3337   -1.0710 H   0  0  0  0  0  0  0  0  0  0  0  0
   -1.6705    1.6502    0.5129 H   0  0  0  0  0  0  0  0  0  0  0  0
   -0.6192    1.1259   -1.9481 H   0  0  0  0  0  0  0  0  0  0  0  0
   -2.1574    0.3341   -1.2900 H   0  0  0  0  0  0  0  0  0  0  0  0
   -1.1946   -1.7140   -1.3344 H   0  0  0  0  0  0  0  0  0  0  0  0
    0.3235   -1.0054   -2.0271 H   0  0  0  0  0  0  0  0  0  0  0  0
  1  2  1  0
  2  3  1  0
  3  4  1  0
  4  5  1  0
  5  6  1  0
  6  7  1  0
  7  8  1  0
  8  9  1  0
  7  2  1  0
  9  3  1  0
  1 10  1  0
  2 11  1  0
  3 12  1  0
  4 13  1  0
  4 14  1  0
  5 15  1  0
  5 16  1  0
  7 17  1  0
  8 18  1  0
  8 19  1  0
  9 20  1  0
  9 21  1  0
M  END
