
     RDKit          3D

 17 18  0  0  0  0  0  0  0  0999 V2000
   -0.4666    1.8221   -0.5454 O   0  0  0  0  0  0  0  0  0  0  0  0
   -0.6755    0.7409    0.2796 C   0  0  0  0  0  0  0  0  0  0  0  0
    0.6346    0.3520    0.9018 C   0  0  0  0  0  0  0  0  0  0  0  0
    1.6733    0.3974   -0.2131 C   0  0  0  0  0  0  0  0  0  0  0  0
    1.3822   -0.7711   -0.9032 O   0  0  0  0  0  0  0  0  0  0  0  0
    0.2776   -1.3435   -0.3046 C   0  0  0  0  0  0  0  0  0  0  0  0
    0.5478   -1.0520    1.0569 O   0  0  0  0  0  0  0  0  0  0  0  0
   -0.9870   -0.5369   -0.4926 C   0  0  0  0  0  0  0  0  0  0  0  0
   -1.9881   -1.1951    0.2425 O   0  0  0  0  0  0  0  0  0  0  0  0
   -1.0424    1.8867   -1.3200 H   0  0  0  0  0  0  0  0  0  0  0  0
   -1.4463    0.9910    1.0147 H   0  0  0  0  0  0  0  0  0  0  0  0
    0.9124    0.8733    1.7919 H   0  0  0  0  0  0  0  0  0  0  0  0
    2.6852    0.4327    0.1912 H   0  0  0  0  0  0  0  0  0  0  0  0
    1.4415    1.2400   -0.9098 H   0  0  0  0  0  0  0  0  0  0  0  0
    0.1668   -2.4054   -0.4787 H   0  0  0  0  0  0  0  0  0  0  0  0
   -1.2695   -0.3692   -1.5198 H   0  0  0  0  0  0  0  0  0  0  0  0
   -1.8461   -1.0628    1.2085 H   0  0  0  0  0  0  0  0  0  0  0  0
  1  2  1  0
  2  3  1  0
  3  4  1  0
  4  5  1  0
  5  6  1  0
  6  7  1  0
  6  8  1  0
  8  9  1  0
  8  2  1  0
  7  3  1  0
  1 10  1  0
  2 11  1  0
  3 12  1  0
  4 13  1  0
  4 14  1  0
  6 15  1  0
  8 16  1  0
  9 17  1  0
M  END
