
     RDKit          3D

 23 24  0  0  0  0  0  0  0  0999 V2000
    1.8842    1.8746    0.8714 O   0  0  0  0  0  0  0  0  0  0  0  0
    1.1351    0.7097    0.8792 C   0  0  0  0  0  0  0  0  0  0  0  0
    2.0045   -0.4190    0.3968 C   0  0  0  0  0  0  0  0  0  0  0  0
    1.1667   -1.2317   -0.5468 C   0  0  0  0  0  0  0  0  0  0  0  0
   -0.0522   -0.4391   -0.8805 C   0  0  0  0  0  0  0  0  0  0  0  0
   -1.3427   -1.1451   -0.4488 C   0  0  0  0  0  0  0  0  0  0  0  0
   -2.2523    0.0811   -0.2817 C   0  0  0  0  0  0  0  0  0  0  0  0
   -1.3608    0.8991    0.6635 C   0  0  0  0  0  0  0  0  0  0  0  0
   -0.0281    0.8219   -0.0630 C   0  0  0  0  0  0  0  0  0  0  0  0
    1.7466    2.3579    0.0063 H   0  0  0  0  0  0  0  0  0  0  0  0
    0.7512    0.4336    1.8723 H   0  0  0  0  0  0  0  0  0  0  0  0
    2.9374   -0.0498   -0.0908 H   0  0  0  0  0  0  0  0  0  0  0  0
    2.3541   -1.0560    1.2483 H   0  0  0  0  0  0  0  0  0  0  0  0
    0.8963   -2.2258   -0.1647 H   0  0  0  0  0  0  0  0  0  0  0  0
    1.7459   -1.3745   -1.4882 H   0  0  0  0  0  0  0  0  0  0  0  0
   -0.1468   -0.2147   -1.9654 H   0  0  0  0  0  0  0  0  0  0  0  0
   -1.2314   -1.5610    0.5653 H   0  0  0  0  0  0  0  0  0  0  0  0
   -1.7129   -1.8380   -1.2012 H   0  0  0  0  0  0  0  0  0  0  0  0
   -3.2115   -0.1722    0.1669 H   0  0  0  0  0  0  0  0  0  0  0  0
   -2.2949    0.6024   -1.2434 H   0  0  0  0  0  0  0  0  0  0  0  0
   -1.7229    1.9156    0.8001 H   0  0  0  0  0  0  0  0  0  0  0  0
   -1.2951    0.3075    1.6095 H   0  0  0  0  0  0  0  0  0  0  0  0
    0.0294    1.7234   -0.7051 H   0  0  0  0  0  0  0  0  0  0  0  0
  1  2  1  0
  2  3  1  0
  3  4  1  0
  4  5  1  0
  5  6  1  0
  6  7  1  0
  7  8  1  0
  8  9  1  0
  9  2  1  0
  9  5  1  0
  1 10  1  0
  2 11  1  0
  3 12  1  0
  3 13  1  0
  4 14  1  0
  4 15  1  0
  5 16  1  0
  6 17  1  0
  6 18  1  0
  7 19  1  0
  7 20  1  0
  8 21  1  0
  8 22  1  0
  9 23  1  0
M  END
