
     RDKit          3D

 19 21  0  0  0  0  0  0  0  0999 V2000
    2.5886    0.1449   -0.2321 O   0  0  0  0  0  0  0  0  0  0  0  0
    1.4627   -0.1946    0.4831 C   0  0  0  0  0  0  0  0  0  0  0  0
    0.8257   -1.4648   -0.1187 C   0  0  0  0  0  0  0  0  0  0  0  0
   -0.5527   -0.9279   -0.3688 C   0  0  0  0  0  0  0  0  0  0  0  0
   -0.3423    0.4322   -1.0135 C   0  0  0  0  0  0  0  0  0  0  0  0
   -1.6810    1.0533   -0.8463 C   0  0  0  0  0  0  0  0  0  0  0  0
   -1.9898    0.7556    0.4188 C   0  0  0  0  0  0  0  0  0  0  0  0
   -0.8495   -0.0618    0.8586 C   0  0  0  0  0  0  0  0  0  0  0  0
    0.3178    0.7547    0.3161 C   0  0  0  0  0  0  0  0  0  0  0  0
    2.9620    0.9636    0.1652 H   0  0  0  0  0  0  0  0  0  0  0  0
    1.6810   -0.3449    1.5599 H   0  0  0  0  0  0  0  0  0  0  0  0
    0.8702   -2.2515    0.6350 H   0  0  0  0  0  0  0  0  0  0  0  0
    1.2935   -1.7186   -1.0770 H   0  0  0  0  0  0  0  0  0  0  0  0
   -1.3239   -1.5559   -0.7337 H   0  0  0  0  0  0  0  0  0  0  0  0
    0.1959    0.5170   -1.9081 H   0  0  0  0  0  0  0  0  0  0  0  0
   -2.2328    1.6043   -1.5982 H   0  0  0  0  0  0  0  0  0  0  0  0
   -2.8403    1.0121    1.0329 H   0  0  0  0  0  0  0  0  0  0  0  0
   -0.7885   -0.4882    1.8139 H   0  0  0  0  0  0  0  0  0  0  0  0
    0.4034    1.7706    0.6129 H   0  0  0  0  0  0  0  0  0  0  0  0
  1  2  1  0
  2  3  1  0
  3  4  1  0
  4  5  1  0
  5  6  1  0
  6  7  2  0
  7  8  1  0
  8  9  1  0
  9  2  1  0
  8  4  1  0
  9  5  1  0
  1 10  1  0
  2 11  1  0
  3 12  1  0
  3 13  1  0
  4 14  1  0
  5 15  1  0
  6 16  1  0
  7 17  1  0
  8 18  1  0
  9 19  1  0
M  END
