
     RDKit          3D

 19 21  0  0  0  0  0  0  0  0999 V2000
   -2.3604   -0.8588    0.2473 O   0  0  0  0  0  0  0  0  0  0  0  0
   -1.1925   -0.7224   -0.5169 C   0  0  0  0  0  0  0  0  0  0  0  0
   -0.9846    0.7261   -0.8687 C   0  0  0  0  0  0  0  0  0  0  0  0
   -0.1187    1.3412    0.1858 C   0  0  0  0  0  0  0  0  0  0  0  0
    1.2897    0.9788    0.3794 C   0  0  0  0  0  0  0  0  0  0  0  0
    1.9637   -0.0741   -0.3871 C   0  0  0  0  0  0  0  0  0  0  0  0
    1.2426   -1.1860   -0.4031 C   0  0  0  0  0  0  0  0  0  0  0  0
   -0.0198   -1.0067    0.3631 C   0  0  0  0  0  0  0  0  0  0  0  0
    0.2111    0.2598    1.1088 C   0  0  0  0  0  0  0  0  0  0  0  0
   -2.1119   -0.5099    1.1570 H   0  0  0  0  0  0  0  0  0  0  0  0
   -1.2372   -1.3766   -1.4251 H   0  0  0  0  0  0  0  0  0  0  0  0
   -0.5653    0.8475   -1.8874 H   0  0  0  0  0  0  0  0  0  0  0  0
   -1.9830    1.2075   -0.8587 H   0  0  0  0  0  0  0  0  0  0  0  0
   -0.4550    2.3113    0.5782 H   0  0  0  0  0  0  0  0  0  0  0  0
    1.9329    1.7121    0.9100 H   0  0  0  0  0  0  0  0  0  0  0  0
    2.9224    0.0168   -0.8841 H   0  0  0  0  0  0  0  0  0  0  0  0
    1.5508   -2.0997   -0.9151 H   0  0  0  0  0  0  0  0  0  0  0  0
   -0.1719   -1.8925    1.0192 H   0  0  0  0  0  0  0  0  0  0  0  0
    0.0871    0.3257    2.1972 H   0  0  0  0  0  0  0  0  0  0  0  0
  1  2  1  0
  2  3  1  0
  3  4  1  0
  4  5  1  0
  5  6  1  0
  6  7  2  0
  7  8  1  0
  8  9  1  0
  8  2  1  0
  9  4  1  0
  9  5  1  0
  1 10  1  0
  2 11  1  0
  3 12  1  0
  3 13  1  0
  4 14  1  0
  5 15  1  0
  6 16  1  0
  7 17  1  0
  8 18  1  0
  9 19  1  0
M  END
