
     RDKit          3D

 19 20  0  0  0  0  0  0  0  0999 V2000
   -0.6920    1.9726   -1.1068 O   0  0  0  0  0  0  0  0  0  0  0  0
   -0.5122    0.6698   -0.7468 C   0  0  0  0  0  0  0  0  0  0  0  0
   -1.4449    0.2292    0.3861 C   0  0  0  0  0  0  0  0  0  0  0  0
   -0.8937   -1.1672    0.6599 C   0  0  0  0  0  0  0  0  0  0  0  0
    0.5795   -1.1064    0.3184 C   0  0  0  0  0  0  0  0  0  0  0  0
    0.9034   -1.9485   -0.7485 O   0  0  0  0  0  0  0  0  0  0  0  0
    0.8182    0.3209   -0.1989 C   0  0  0  0  0  0  0  0  0  0  0  0
    1.7787    1.0843    0.4309 C   0  0  0  0  0  0  0  0  0  0  0  0
    1.9807    0.4559   -0.9033 O   0  0  0  0  0  0  0  0  0  0  0  0
   -1.4616    2.4250   -0.7143 H   0  0  0  0  0  0  0  0  0  0  0  0
   -0.7324   -0.0529   -1.5855 H   0  0  0  0  0  0  0  0  0  0  0  0
   -1.3066    0.8937    1.2657 H   0  0  0  0  0  0  0  0  0  0  0  0
   -2.4724    0.1137    0.0599 H   0  0  0  0  0  0  0  0  0  0  0  0
   -1.4036   -1.8728   -0.0543 H   0  0  0  0  0  0  0  0  0  0  0  0
   -1.0270   -1.4710    1.7022 H   0  0  0  0  0  0  0  0  0  0  0  0
    1.2189   -1.3310    1.1796 H   0  0  0  0  0  0  0  0  0  0  0  0
    0.2043   -2.0004   -1.4270 H   0  0  0  0  0  0  0  0  0  0  0  0
    1.9854    2.1631    0.3007 H   0  0  0  0  0  0  0  0  0  0  0  0
    2.4774    0.6223    1.1821 H   0  0  0  0  0  0  0  0  0  0  0  0
  1  2  1  0
  2  3  1  0
  3  4  1  0
  4  5  1  0
  5  6  1  0
  5  7  1  0
  7  8  1  0
  8  9  1  0
  7  2  1  0
  9  7  1  0
  1 10  1  0
  2 11  1  0
  3 12  1  0
  3 13  1  0
  4 14  1  0
  4 15  1  0
  5 16  1  0
  6 17  1  0
  8 18  1  0
  8 19  1  0
M  END
