
     RDKit          3D

 19 20  0  0  0  0  0  0  0  0999 V2000
    2.5231    0.0700   -0.0356 O   0  0  0  0  0  0  0  0  0  0  0  0
    1.2561    0.1070   -0.6146 C   0  0  0  0  0  0  0  0  0  0  0  0
    0.6094   -1.2403   -0.8302 C   0  0  0  0  0  0  0  0  0  0  0  0
   -0.3592   -0.9478    0.2659 C   0  0  0  0  0  0  0  0  0  0  0  0
   -1.7745   -0.6380   -0.1519 C   0  0  0  0  0  0  0  0  0  0  0  0
   -1.7254    0.5942   -0.8161 O   0  0  0  0  0  0  0  0  0  0  0  0
   -0.8029    1.3599   -0.0722 C   0  0  0  0  0  0  0  0  0  0  0  0
    0.2284    0.4308    0.4466 C   0  0  0  0  0  0  0  0  0  0  0  0
    0.6948    0.6097    1.7179 O   0  0  0  0  0  0  0  0  0  0  0  0
    2.5216    0.3784    0.9080 H   0  0  0  0  0  0  0  0  0  0  0  0
    1.1774    0.7050   -1.5448 H   0  0  0  0  0  0  0  0  0  0  0  0
    1.3202   -2.0489   -0.5296 H   0  0  0  0  0  0  0  0  0  0  0  0
    0.1458   -1.4020   -1.8159 H   0  0  0  0  0  0  0  0  0  0  0  0
   -0.3037   -1.5897    1.1660 H   0  0  0  0  0  0  0  0  0  0  0  0
   -2.3590   -0.4985    0.7911 H   0  0  0  0  0  0  0  0  0  0  0  0
   -2.1825   -1.4236   -0.7906 H   0  0  0  0  0  0  0  0  0  0  0  0
   -0.3091    2.0238   -0.8413 H   0  0  0  0  0  0  0  0  0  0  0  0
   -1.2914    1.9992    0.6663 H   0  0  0  0  0  0  0  0  0  0  0  0
    0.6312    1.5107    2.0810 H   0  0  0  0  0  0  0  0  0  0  0  0
  1  2  1  0
  2  3  1  0
  3  4  1  0
  4  5  1  0
  5  6  1  0
  6  7  1  0
  7  8  1  0
  8  9  1  0
  8  2  1  0
  8  4  1  0
  1 10  1  0
  2 11  1  0
  3 12  1  0
  3 13  1  0
  4 14  1  0
  5 15  1  0
  5 16  1  0
  7 17  1  0
  7 18  1  0
  9 19  1  0
M  END
