
     RDKit          3D

 21 22  0  0  0  0  0  0  0  0999 V2000
    2.7163    0.0008    0.0236 O   0  0  0  0  0  0  0  0  0  0  0  0
    1.4383    0.2401   -0.5035 C   0  0  0  0  0  0  0  0  0  0  0  0
    0.7171    1.1903    0.3705 C   0  0  0  0  0  0  0  0  0  0  0  0
   -0.7549    1.1323    0.4000 C   0  0  0  0  0  0  0  0  0  0  0  0
   -1.3339    2.2352   -0.2799 O   0  0  0  0  0  0  0  0  0  0  0  0
   -1.4114   -0.0862   -0.0808 C   0  0  0  0  0  0  0  0  0  0  0  0
   -1.2309   -1.3095    0.8445 C   0  0  0  0  0  0  0  0  0  0  0  0
   -0.6428   -1.1907   -0.5657 C   0  0  0  0  0  0  0  0  0  0  0  0
    0.8067   -1.0827   -0.7416 C   0  0  0  0  0  0  0  0  0  0  0  0
    2.6650   -0.1003    1.0265 H   0  0  0  0  0  0  0  0  0  0  0  0
    1.6444    0.7520   -1.4799 H   0  0  0  0  0  0  0  0  0  0  0  0
    1.1382    1.0869    1.4106 H   0  0  0  0  0  0  0  0  0  0  0  0
    1.0029    2.2380    0.0894 H   0  0  0  0  0  0  0  0  0  0  0  0
   -1.1059    1.2850    1.4666 H   0  0  0  0  0  0  0  0  0  0  0  0
   -1.7266    1.9159   -1.1465 H   0  0  0  0  0  0  0  0  0  0  0  0
   -2.4757    0.0337   -0.4418 H   0  0  0  0  0  0  0  0  0  0  0  0
   -2.1001   -1.9341    1.0303 H   0  0  0  0  0  0  0  0  0  0  0  0
   -0.5449   -1.2110    1.6990 H   0  0  0  0  0  0  0  0  0  0  0  0
   -1.1662   -1.9090   -1.2665 H   0  0  0  0  0  0  0  0  0  0  0  0
    1.0875   -1.4119   -1.7729 H   0  0  0  0  0  0  0  0  0  0  0  0
    1.2771   -1.8749   -0.0820 H   0  0  0  0  0  0  0  0  0  0  0  0
  1  2  1  0
  2  3  1  0
  3  4  1  0
  4  5  1  0
  4  6  1  0
  6  7  1  0
  7  8  1  0
  8  9  1  0
  9  2  1  0
  8  6  1  0
  1 10  1  0
  2 11  1  0
  3 12  1  0
  3 13  1  0
  4 14  1  0
  5 15  1  0
  6 16  1  0
  7 17  1  0
  7 18  1  0
  8 19  1  0
  9 20  1  0
  9 21  1  0
M  END
