
     RDKit          3D

 19 20  0  0  0  0  0  0  0  0999 V2000
   -1.1809    2.0418   -0.3742 O   0  0  0  0  0  0  0  0  0  0  0  0
   -0.2456    1.0547   -0.3161 C   0  0  0  0  0  0  0  0  0  0  0  0
   -0.1545    0.4095    1.0733 C   0  0  0  0  0  0  0  0  0  0  0  0
    1.1132   -0.4164    1.0283 C   0  0  0  0  0  0  0  0  0  0  0  0
    1.5147   -0.7420   -0.3663 C   0  0  0  0  0  0  0  0  0  0  0  0
    0.4963   -0.9719   -1.2417 O   0  0  0  0  0  0  0  0  0  0  0  0
   -0.6101   -0.1852   -1.1080 C   0  0  0  0  0  0  0  0  0  0  0  0
   -1.5493   -0.8759   -0.1199 C   0  0  0  0  0  0  0  0  0  0  0  0
   -1.2181   -0.4570    1.1321 O   0  0  0  0  0  0  0  0  0  0  0  0
   -0.7058    2.9306   -0.3548 H   0  0  0  0  0  0  0  0  0  0  0  0
    0.7363    1.3982   -0.6724 H   0  0  0  0  0  0  0  0  0  0  0  0
   -0.1934    1.1297    1.8770 H   0  0  0  0  0  0  0  0  0  0  0  0
    0.9755   -1.3457    1.6088 H   0  0  0  0  0  0  0  0  0  0  0  0
    1.9084    0.1803    1.5396 H   0  0  0  0  0  0  0  0  0  0  0  0
    2.2455    0.0282   -0.7520 H   0  0  0  0  0  0  0  0  0  0  0  0
    2.1339   -1.6864   -0.3199 H   0  0  0  0  0  0  0  0  0  0  0  0
   -1.1440    0.0329   -2.0334 H   0  0  0  0  0  0  0  0  0  0  0  0
   -2.5997   -0.5598   -0.3254 H   0  0  0  0  0  0  0  0  0  0  0  0
   -1.5225   -1.9656   -0.2748 H   0  0  0  0  0  0  0  0  0  0  0  0
  1  2  1  0
  2  3  1  0
  3  4  1  0
  4  5  1  0
  5  6  1  0
  6  7  1  0
  7  8  1  0
  8  9  1  0
  7  2  1  0
  9  3  1  0
  1 10  1  0
  2 11  1  0
  3 12  1  0
  4 13  1  0
  4 14  1  0
  5 15  1  0
  5 16  1  0
  7 17  1  0
  8 18  1  0
  8 19  1  0
M  END
