
     RDKit          3D

 19 20  0  0  0  0  0  0  0  0999 V2000
   -0.9091    1.7924    0.9442 O   0  0  0  0  0  0  0  0  0  0  0  0
   -0.9930    0.7614    0.0027 C   0  0  0  0  0  0  0  0  0  0  0  0
   -1.0214   -0.5451    0.7190 C   0  0  0  0  0  0  0  0  0  0  0  0
   -0.2034   -1.6213    0.1112 C   0  0  0  0  0  0  0  0  0  0  0  0
    0.9008   -1.1614   -0.7774 C   0  0  0  0  0  0  0  0  0  0  0  0
    1.9161   -0.5120   -0.0928 O   0  0  0  0  0  0  0  0  0  0  0  0
    1.4355    0.7657    0.1161 C   0  0  0  0  0  0  0  0  0  0  0  0
    0.2699    0.8957   -0.8578 C   0  0  0  0  0  0  0  0  0  0  0  0
    0.3747   -0.2194   -1.6658 O   0  0  0  0  0  0  0  0  0  0  0  0
   -1.4408    2.5738    0.7221 H   0  0  0  0  0  0  0  0  0  0  0  0
   -1.8934    0.9550   -0.6017 H   0  0  0  0  0  0  0  0  0  0  0  0
   -0.7241   -0.4075    1.7919 H   0  0  0  0  0  0  0  0  0  0  0  0
   -2.0838   -0.9166    0.7753 H   0  0  0  0  0  0  0  0  0  0  0  0
    0.2672   -2.2419    0.9271 H   0  0  0  0  0  0  0  0  0  0  0  0
   -0.8260   -2.3479   -0.4717 H   0  0  0  0  0  0  0  0  0  0  0  0
    1.3195   -2.0225   -1.3092 H   0  0  0  0  0  0  0  0  0  0  0  0
    1.1286    0.9018    1.1622 H   0  0  0  0  0  0  0  0  0  0  0  0
    2.2281    1.5010   -0.1111 H   0  0  0  0  0  0  0  0  0  0  0  0
    0.2548    1.8488   -1.3842 H   0  0  0  0  0  0  0  0  0  0  0  0
  1  2  1  0
  2  3  1  0
  3  4  1  0
  4  5  1  0
  5  6  1  0
  6  7  1  0
  7  8  1  0
  8  9  1  0
  8  2  1  0
  9  5  1  0
  1 10  1  0
  2 11  1  0
  3 12  1  0
  3 13  1  0
  4 14  1  0
  4 15  1  0
  5 16  1  0
  7 17  1  0
  7 18  1  0
  8 19  1  0
M  END
