
     RDKit          3D

 21 23  0  0  0  0  0  0  0  0999 V2000
   -1.1641   -2.0248    0.1163 O   0  0  0  0  0  0  0  0  0  0  0  0
   -0.6427   -1.0173   -0.6959 C   0  0  0  0  0  0  0  0  0  0  0  0
    0.8663   -1.2979   -0.7809 C   0  0  0  0  0  0  0  0  0  0  0  0
    1.4108   -0.8054    0.5437 C   0  0  0  0  0  0  0  0  0  0  0  0
    1.7926    0.6351    0.6173 C   0  0  0  0  0  0  0  0  0  0  0  0
    0.4476    0.1939    0.9808 C   0  0  0  0  0  0  0  0  0  0  0  0
   -0.6448    0.3269   -0.0572 C   0  0  0  0  0  0  0  0  0  0  0  0
   -0.8833    1.5511   -0.8132 C   0  0  0  0  0  0  0  0  0  0  0  0
   -1.8092    1.1191    0.2706 C   0  0  0  0  0  0  0  0  0  0  0  0
   -1.0203   -1.7843    1.0632 H   0  0  0  0  0  0  0  0  0  0  0  0
   -1.0466   -1.0325   -1.7096 H   0  0  0  0  0  0  0  0  0  0  0  0
    1.2935   -0.7095   -1.6343 H   0  0  0  0  0  0  0  0  0  0  0  0
    1.0765   -2.3665   -0.8957 H   0  0  0  0  0  0  0  0  0  0  0  0
    1.8916   -1.5480    1.2113 H   0  0  0  0  0  0  0  0  0  0  0  0
    2.4484    1.0183    1.4066 H   0  0  0  0  0  0  0  0  0  0  0  0
    1.9810    1.1287   -0.3714 H   0  0  0  0  0  0  0  0  0  0  0  0
    0.0908    0.1915    2.0178 H   0  0  0  0  0  0  0  0  0  0  0  0
   -1.2607    1.4490   -1.8681 H   0  0  0  0  0  0  0  0  0  0  0  0
   -0.2118    2.4142   -0.6720 H   0  0  0  0  0  0  0  0  0  0  0  0
   -2.8572    0.8434    0.0429 H   0  0  0  0  0  0  0  0  0  0  0  0
   -1.7583    1.7151    1.2278 H   0  0  0  0  0  0  0  0  0  0  0  0
  1  2  1  0
  2  3  1  0
  3  4  1  0
  4  5  1  0
  5  6  1  0
  6  7  1  0
  7  8  1  0
  8  9  1  0
  7  2  1  0
  6  4  1  0
  9  7  1  0
  1 10  1  0
  2 11  1  0
  3 12  1  0
  3 13  1  0
  4 14  1  0
  5 15  1  0
  5 16  1  0
  6 17  1  0
  8 18  1  0
  8 19  1  0
  9 20  1  0
  9 21  1  0
M  END
