
     RDKit          3D

 21 23  0  0  0  0  0  0  0  0999 V2000
    3.0398   -0.7381    0.2537 O   0  0  0  0  0  0  0  0  0  0  0  0
    1.7114   -1.0502   -0.0255 C   0  0  0  0  0  0  0  0  0  0  0  0
    1.1127   -0.2902   -1.1798 C   0  0  0  0  0  0  0  0  0  0  0  0
    0.2189    0.4353   -0.2293 C   0  0  0  0  0  0  0  0  0  0  0  0
   -1.2229    0.6659   -0.5299 C   0  0  0  0  0  0  0  0  0  0  0  0
   -2.1818   -0.4346   -0.7569 C   0  0  0  0  0  0  0  0  0  0  0  0
   -2.2026    0.3189    0.5199 C   0  0  0  0  0  0  0  0  0  0  0  0
    0.8153    1.1196    0.9252 C   0  0  0  0  0  0  0  0  0  0  0  0
    0.7125   -0.3589    0.8955 C   0  0  0  0  0  0  0  0  0  0  0  0
    3.1032   -0.0467    0.9747 H   0  0  0  0  0  0  0  0  0  0  0  0
    1.4920   -2.1477   -0.0255 H   0  0  0  0  0  0  0  0  0  0  0  0
    0.6104   -0.9222   -1.9418 H   0  0  0  0  0  0  0  0  0  0  0  0
    1.8321    0.4182   -1.6493 H   0  0  0  0  0  0  0  0  0  0  0  0
   -1.4075    1.5838   -1.1460 H   0  0  0  0  0  0  0  0  0  0  0  0
   -1.7944   -1.4716   -0.7433 H   0  0  0  0  0  0  0  0  0  0  0  0
   -3.0432   -0.2880   -1.4270 H   0  0  0  0  0  0  0  0  0  0  0  0
   -2.9807    1.0955    0.7173 H   0  0  0  0  0  0  0  0  0  0  0  0
   -1.9206   -0.2361    1.4202 H   0  0  0  0  0  0  0  0  0  0  0  0
    0.1960    1.6873    1.6321 H   0  0  0  0  0  0  0  0  0  0  0  0
    1.8065    1.5996    0.7364 H   0  0  0  0  0  0  0  0  0  0  0  0
    0.1027   -0.9396    1.5796 H   0  0  0  0  0  0  0  0  0  0  0  0
  1  2  1  0
  2  3  1  0
  3  4  1  0
  4  5  1  0
  5  6  1  0
  6  7  1  0
  4  8  1  0
  8  9  1  0
  9  2  1  0
  9  4  1  0
  7  5  1  0
  1 10  1  0
  2 11  1  0
  3 12  1  0
  3 13  1  0
  5 14  1  0
  6 15  1  0
  6 16  1  0
  7 17  1  0
  7 18  1  0
  8 19  1  0
  8 20  1  0
  9 21  1  0
M  END
