
     RDKit          3D

 21 22  0  0  0  0  0  0  0  0999 V2000
    2.4109    0.1741    0.7804 O   0  0  0  0  0  0  0  0  0  0  0  0
    1.1231   -0.2555    0.5387 C   0  0  0  0  0  0  0  0  0  0  0  0
    0.9359   -0.6413   -0.9180 C   0  0  0  0  0  0  0  0  0  0  0  0
   -0.5026   -0.3431   -1.2712 C   0  0  0  0  0  0  0  0  0  0  0  0
   -1.4309   -0.8741   -0.1900 C   0  0  0  0  0  0  0  0  0  0  0  0
   -1.2245   -0.0494    1.0578 C   0  0  0  0  0  0  0  0  0  0  0  0
    0.0692    0.7579    0.8736 C   0  0  0  0  0  0  0  0  0  0  0  0
   -0.1470    1.6892   -0.3223 C   0  0  0  0  0  0  0  0  0  0  0  0
   -0.7448    1.0276   -1.3817 O   0  0  0  0  0  0  0  0  0  0  0  0
    2.9957   -0.6412    0.7231 H   0  0  0  0  0  0  0  0  0  0  0  0
    0.9585   -1.1539    1.1981 H   0  0  0  0  0  0  0  0  0  0  0  0
    1.0847   -1.7237   -1.0000 H   0  0  0  0  0  0  0  0  0  0  0  0
    1.6056   -0.0711   -1.5791 H   0  0  0  0  0  0  0  0  0  0  0  0
   -0.7067   -0.8696   -2.2308 H   0  0  0  0  0  0  0  0  0  0  0  0
   -1.1593   -1.9413   -0.0513 H   0  0  0  0  0  0  0  0  0  0  0  0
   -2.4732   -0.8488   -0.5214 H   0  0  0  0  0  0  0  0  0  0  0  0
   -0.9741   -0.7849    1.8759 H   0  0  0  0  0  0  0  0  0  0  0  0
   -2.0673    0.5957    1.3108 H   0  0  0  0  0  0  0  0  0  0  0  0
    0.2692    1.3453    1.7741 H   0  0  0  0  0  0  0  0  0  0  0  0
   -0.8333    2.5035    0.0161 H   0  0  0  0  0  0  0  0  0  0  0  0
    0.8108    2.1049   -0.6827 H   0  0  0  0  0  0  0  0  0  0  0  0
  1  2  1  0
  2  3  1  0
  3  4  1  0
  4  5  1  0
  5  6  1  0
  6  7  1  0
  7  8  1  0
  8  9  1  0
  7  2  1  0
  9  4  1  0
  1 10  1  0
  2 11  1  0
  3 12  1  0
  3 13  1  0
  4 14  1  0
  5 15  1  0
  5 16  1  0
  6 17  1  0
  6 18  1  0
  7 19  1  0
  8 20  1  0
  8 21  1  0
M  END
