
     RDKit          3D

 19 21  0  0  0  0  0  0  0  0999 V2000
    2.6467   -0.1579   -0.7067 O   0  0  0  0  0  0  0  0  0  0  0  0
    1.8789    0.3808    0.3329 C   0  0  0  0  0  0  0  0  0  0  0  0
    1.1302    1.6356    0.1005 C   0  0  0  0  0  0  0  0  0  0  0  0
    0.4376    0.3086    0.3071 C   0  0  0  0  0  0  0  0  0  0  0  0
   -0.3720    0.1302    1.4073 O   0  0  0  0  0  0  0  0  0  0  0  0
   -0.9638   -1.1099    1.1837 C   0  0  0  0  0  0  0  0  0  0  0  0
   -1.4287   -0.9946   -0.2575 C   0  0  0  0  0  0  0  0  0  0  0  0
   -1.8599    0.3010   -0.8100 C   0  0  0  0  0  0  0  0  0  0  0  0
   -0.3791   -0.1495   -0.8621 C   0  0  0  0  0  0  0  0  0  0  0  0
    2.7223   -1.1534   -0.6243 H   0  0  0  0  0  0  0  0  0  0  0  0
    2.3692    0.3215    1.3484 H   0  0  0  0  0  0  0  0  0  0  0  0
    0.9283    2.3724    0.8822 H   0  0  0  0  0  0  0  0  0  0  0  0
    1.1863    2.0348   -0.9542 H   0  0  0  0  0  0  0  0  0  0  0  0
   -1.8139   -1.2092    1.8689 H   0  0  0  0  0  0  0  0  0  0  0  0
   -0.2403   -1.9404    1.3085 H   0  0  0  0  0  0  0  0  0  0  0  0
   -1.8125   -1.9097   -0.7072 H   0  0  0  0  0  0  0  0  0  0  0  0
   -2.0465    1.1944   -0.2159 H   0  0  0  0  0  0  0  0  0  0  0  0
   -2.4274    0.2596   -1.7561 H   0  0  0  0  0  0  0  0  0  0  0  0
    0.0444   -0.3141   -1.8457 H   0  0  0  0  0  0  0  0  0  0  0  0
  1  2  1  0
  2  3  1  0
  3  4  1  0
  4  5  1  0
  5  6  1  0
  6  7  1  0
  7  8  1  0
  8  9  1  0
  4  2  1  0
  9  7  1  0
  9  4  1  0
  1 10  1  0
  2 11  1  0
  3 12  1  0
  3 13  1  0
  6 14  1  0
  6 15  1  0
  7 16  1  0
  8 17  1  0
  8 18  1  0
  9 19  1  0
M  END
