
     RDKit          3D

 21 22  0  0  0  0  0  0  0  0999 V2000
    3.2331    0.3673   -0.7423 O   0  0  0  0  0  0  0  0  0  0  0  0
    2.3200   -0.0592    0.2146 C   0  0  0  0  0  0  0  0  0  0  0  0
    1.5220   -1.3073   -0.0352 C   0  0  0  0  0  0  0  0  0  0  0  0
    0.8403   -0.0051   -0.1733 C   0  0  0  0  0  0  0  0  0  0  0  0
   -0.0352    0.5659    0.8837 C   0  0  0  0  0  0  0  0  0  0  0  0
   -1.4700    0.6418    0.5635 C   0  0  0  0  0  0  0  0  0  0  0  0
   -2.1748   -0.6386    0.2586 C   0  0  0  0  0  0  0  0  0  0  0  0
   -2.0311   -0.4158   -1.1225 O   0  0  0  0  0  0  0  0  0  0  0  0
   -1.8892    0.9353   -0.8356 C   0  0  0  0  0  0  0  0  0  0  0  0
    3.9661   -0.2736   -0.8907 H   0  0  0  0  0  0  0  0  0  0  0  0
    2.6063    0.2171    1.2440 H   0  0  0  0  0  0  0  0  0  0  0  0
    1.3990   -1.9353    0.8911 H   0  0  0  0  0  0  0  0  0  0  0  0
    1.7274   -1.9258   -0.9259 H   0  0  0  0  0  0  0  0  0  0  0  0
    0.6269    0.3193   -1.2116 H   0  0  0  0  0  0  0  0  0  0  0  0
    0.0904   -0.0694    1.8041 H   0  0  0  0  0  0  0  0  0  0  0  0
    0.3394    1.5691    1.1621 H   0  0  0  0  0  0  0  0  0  0  0  0
   -2.0247    1.2511    1.3043 H   0  0  0  0  0  0  0  0  0  0  0  0
   -3.2627   -0.5972    0.5044 H   0  0  0  0  0  0  0  0  0  0  0  0
   -1.7030   -1.5578    0.6237 H   0  0  0  0  0  0  0  0  0  0  0  0
   -2.8906    1.4194   -0.8697 H   0  0  0  0  0  0  0  0  0  0  0  0
   -1.1898    1.4988   -1.4692 H   0  0  0  0  0  0  0  0  0  0  0  0
  1  2  1  0
  2  3  1  0
  3  4  1  0
  4  5  1  0
  5  6  1  0
  6  7  1  0
  7  8  1  0
  8  9  1  0
  4  2  1  0
  9  6  1  0
  1 10  1  0
  2 11  1  0
  3 12  1  0
  3 13  1  0
  4 14  1  0
  5 15  1  0
  5 16  1  0
  6 17  1  0
  7 18  1  0
  7 19  1  0
  9 20  1  0
  9 21  1  0
M  END
