
     RDKit          3D

 19 20  0  0  0  0  0  0  0  0999 V2000
    1.1374   -1.8194   -0.0380 O   0  0  0  0  0  0  0  0  0  0  0  0
    0.8862   -0.5652   -0.6195 C   0  0  0  0  0  0  0  0  0  0  0  0
    1.7931    0.4586    0.0009 C   0  0  0  0  0  0  0  0  0  0  0  0
    1.2045    0.9966    1.0646 C   0  0  0  0  0  0  0  0  0  0  0  0
   -0.1385    0.3770    1.2391 C   0  0  0  0  0  0  0  0  0  0  0  0
   -0.4541   -0.0819   -0.1389 C   0  0  0  0  0  0  0  0  0  0  0  0
   -1.6226   -0.9523   -0.3514 C   0  0  0  0  0  0  0  0  0  0  0  0
   -2.1983    0.0640   -1.1477 O   0  0  0  0  0  0  0  0  0  0  0  0
   -1.0839    0.9179   -1.0673 C   0  0  0  0  0  0  0  0  0  0  0  0
    1.4921   -1.6577    0.8891 H   0  0  0  0  0  0  0  0  0  0  0  0
    0.9818   -0.5911   -1.7191 H   0  0  0  0  0  0  0  0  0  0  0  0
    2.7778    0.7087   -0.3760 H   0  0  0  0  0  0  0  0  0  0  0  0
    1.5765    1.7618    1.7399 H   0  0  0  0  0  0  0  0  0  0  0  0
   -0.8686    1.0335    1.6973 H   0  0  0  0  0  0  0  0  0  0  0  0
    0.0105   -0.5191    1.8775 H   0  0  0  0  0  0  0  0  0  0  0  0
   -1.4634   -1.8452   -1.0035 H   0  0  0  0  0  0  0  0  0  0  0  0
   -2.2560   -1.1933    0.5188 H   0  0  0  0  0  0  0  0  0  0  0  0
   -1.2511    1.8678   -0.5575 H   0  0  0  0  0  0  0  0  0  0  0  0
   -0.5234    1.0394   -2.0083 H   0  0  0  0  0  0  0  0  0  0  0  0
  1  2  1  0
  2  3  1  0
  3  4  2  0
  4  5  1  0
  5  6  1  0
  6  7  1  0
  7  8  1  0
  8  9  1  0
  6  2  1  0
  9  6  1  0
  1 10  1  0
  2 11  1  0
  3 12  1  0
  4 13  1  0
  5 14  1  0
  5 15  1  0
  7 16  1  0
  7 17  1  0
  9 18  1  0
  9 19  1  0
M  END
