
     RDKit          3D

 19 20  0  0  0  0  0  0  0  0999 V2000
   -2.2838   -1.1415   -0.2590 O   0  0  0  0  0  0  0  0  0  0  0  0
   -1.4218   -0.2326    0.3474 C   0  0  0  0  0  0  0  0  0  0  0  0
   -1.5419    1.1425   -0.2317 C   0  0  0  0  0  0  0  0  0  0  0  0
   -0.1615    1.7135    0.0135 C   0  0  0  0  0  0  0  0  0  0  0  0
    0.6985    0.4989    0.0052 C   0  0  0  0  0  0  0  0  0  0  0  0
   -0.0008   -0.6004    0.1917 C   0  0  0  0  0  0  0  0  0  0  0  0
    0.9787   -1.7626    0.1618 C   0  0  0  0  0  0  0  0  0  0  0  0
    2.0348   -1.2022   -0.5871 O   0  0  0  0  0  0  0  0  0  0  0  0
    2.1230    0.0975   -0.1470 C   0  0  0  0  0  0  0  0  0  0  0  0
   -1.8418   -1.9290   -0.6176 H   0  0  0  0  0  0  0  0  0  0  0  0
   -1.6550   -0.2527    1.4315 H   0  0  0  0  0  0  0  0  0  0  0  0
   -2.3298    1.6839    0.3135 H   0  0  0  0  0  0  0  0  0  0  0  0
   -1.7246    1.0728   -1.3180 H   0  0  0  0  0  0  0  0  0  0  0  0
    0.1014    2.3481   -0.8715 H   0  0  0  0  0  0  0  0  0  0  0  0
   -0.0811    2.3122    0.9149 H   0  0  0  0  0  0  0  0  0  0  0  0
    1.3228   -2.0282    1.1578 H   0  0  0  0  0  0  0  0  0  0  0  0
    0.4586   -2.5626   -0.3910 H   0  0  0  0  0  0  0  0  0  0  0  0
    2.6785    0.1432    0.8023 H   0  0  0  0  0  0  0  0  0  0  0  0
    2.6458    0.6994   -0.9168 H   0  0  0  0  0  0  0  0  0  0  0  0
  1  2  1  0
  2  3  1  0
  3  4  1  0
  4  5  1  0
  5  6  2  0
  6  7  1  0
  7  8  1  0
  8  9  1  0
  6  2  1  0
  9  5  1  0
  1 10  1  0
  2 11  1  0
  3 12  1  0
  3 13  1  0
  4 14  1  0
  4 15  1  0
  7 16  1  0
  7 17  1  0
  9 18  1  0
  9 19  1  0
M  END
