
     RDKit          3D

 19 19  0  0  0  0  0  0  0  0999 V2000
    2.8658   -0.8697   -0.1058 O   0  0  0  0  0  0  0  0  0  0  0  0
    1.5655   -0.4830    0.2271 C   0  0  0  0  0  0  0  0  0  0  0  0
    1.4077    0.9788    0.0380 C   0  0  0  0  0  0  0  0  0  0  0  0
    0.3345    1.7461   -0.0060 C   0  0  0  0  0  0  0  0  0  0  0  0
   -1.1158    1.5984    0.0949 C   0  0  0  0  0  0  0  0  0  0  0  0
   -1.9525    0.5778    0.1975 C   0  0  0  0  0  0  0  0  0  0  0  0
   -1.8141   -0.8910    0.2583 C   0  0  0  0  0  0  0  0  0  0  0  0
   -0.7089   -1.4109   -0.5520 C   0  0  0  0  0  0  0  0  0  0  0  0
    0.6233   -1.2730   -0.5925 C   0  0  0  0  0  0  0  0  0  0  0  0
    3.4633   -0.4170    0.5367 H   0  0  0  0  0  0  0  0  0  0  0  0
    1.4425   -0.7481    1.3145 H   0  0  0  0  0  0  0  0  0  0  0  0
    2.3321    1.4821   -0.0817 H   0  0  0  0  0  0  0  0  0  0  0  0
    0.5903    2.7869   -0.1612 H   0  0  0  0  0  0  0  0  0  0  0  0
   -1.6617    2.5509    0.0850 H   0  0  0  0  0  0  0  0  0  0  0  0
   -3.0027    0.8940    0.2504 H   0  0  0  0  0  0  0  0  0  0  0  0
   -2.7600   -1.3385   -0.1113 H   0  0  0  0  0  0  0  0  0  0  0  0
   -1.7024   -1.2364    1.3281 H   0  0  0  0  0  0  0  0  0  0  0  0
   -1.0046   -2.0938   -1.3419 H   0  0  0  0  0  0  0  0  0  0  0  0
    1.0975   -1.8537   -1.3781 H   0  0  0  0  0  0  0  0  0  0  0  0
  1  2  1  0
  2  3  1  0
  3  4  2  3
  4  5  1  0
  5  6  2  3
  6  7  1  0
  7  8  1  0
  8  9  2  3
  9  2  1  0
  1 10  1  0
  2 11  1  0
  3 12  1  0
  4 13  1  0
  5 14  1  0
  6 15  1  0
  7 16  1  0
  7 17  1  0
  8 18  1  0
  9 19  1  0
M  END
