
     RDKit          3D

 16 17  0  0  0  0  0  0  0  0999 V2000
    1.8199   -0.3515    1.3574 O   0  0  0  0  0  0  0  0  0  0  0  0
    1.1994   -0.1715    0.1154 C   0  0  0  0  0  0  0  0  0  0  0  0
    0.7472    1.2674    0.0472 C   0  0  0  0  0  0  0  0  0  0  0  0
   -0.4952    1.4474    0.6331 O   0  0  0  0  0  0  0  0  0  0  0  0
   -1.4858    0.6947    0.0585 C   0  0  0  0  0  0  0  0  0  0  0  0
   -1.1781   -0.7794   -0.0063 C   0  0  0  0  0  0  0  0  0  0  0  0
   -0.6307   -1.4117    1.1156 O   0  0  0  0  0  0  0  0  0  0  0  0
    0.1264   -1.1604   -0.1481 C   0  0  0  0  0  0  0  0  0  0  0  0
    1.3743   -1.0275    1.9135 H   0  0  0  0  0  0  0  0  0  0  0  0
    2.0178   -0.3242   -0.6433 H   0  0  0  0  0  0  0  0  0  0  0  0
    1.4735    1.9214    0.5437 H   0  0  0  0  0  0  0  0  0  0  0  0
    0.7497    1.5435   -1.0385 H   0  0  0  0  0  0  0  0  0  0  0  0
   -1.7325    1.0160   -0.9801 H   0  0  0  0  0  0  0  0  0  0  0  0
   -2.4029    0.8175    0.6927 H   0  0  0  0  0  0  0  0  0  0  0  0
   -2.0340   -1.3701   -0.4299 H   0  0  0  0  0  0  0  0  0  0  0  0
    0.4511   -2.1116   -0.6286 H   0  0  0  0  0  0  0  0  0  0  0  0
  1  2  1  0
  2  3  1  0
  3  4  1  0
  4  5  1  0
  5  6  1  0
  6  7  1  0
  7  8  1  0
  8  2  1  0
  8  6  1  0
  1  9  1  0
  2 10  1  0
  3 11  1  0
  3 12  1  0
  5 13  1  0
  5 14  1  0
  6 15  1  0
  8 16  1  0
M  END
