
     RDKit          3D

 19 21  0  0  0  0  0  0  0  0999 V2000
   -1.0900    1.9648    0.0399 O   0  0  0  0  0  0  0  0  0  0  0  0
   -1.4455    0.6666   -0.3995 C   0  0  0  0  0  0  0  0  0  0  0  0
   -1.7143   -0.3089    0.7818 C   0  0  0  0  0  0  0  0  0  0  0  0
   -0.5709   -0.3995   -0.0854 C   0  0  0  0  0  0  0  0  0  0  0  0
   -0.1955   -1.5949   -0.8753 C   0  0  0  0  0  0  0  0  0  0  0  0
    0.8904   -1.7643    0.0233 O   0  0  0  0  0  0  0  0  0  0  0  0
    0.8391   -0.4176    0.2388 C   0  0  0  0  0  0  0  0  0  0  0  0
    1.5892    0.3767    1.1528 C   0  0  0  0  0  0  0  0  0  0  0  0
    1.8903    0.4175   -0.3619 C   0  0  0  0  0  0  0  0  0  0  0  0
   -1.0073    2.5308   -0.7644 H   0  0  0  0  0  0  0  0  0  0  0  0
   -2.2252    0.7020   -1.1761 H   0  0  0  0  0  0  0  0  0  0  0  0
   -1.6772    0.1022    1.7924 H   0  0  0  0  0  0  0  0  0  0  0  0
   -2.5570   -1.0341    0.6201 H   0  0  0  0  0  0  0  0  0  0  0  0
    0.2408   -1.3129   -1.8638 H   0  0  0  0  0  0  0  0  0  0  0  0
   -0.8901   -2.4417   -0.9102 H   0  0  0  0  0  0  0  0  0  0  0  0
    1.1079    1.3148    1.5588 H   0  0  0  0  0  0  0  0  0  0  0  0
    2.4073    0.0310    1.8107 H   0  0  0  0  0  0  0  0  0  0  0  0
    2.8278   -0.1316   -0.6597 H   0  0  0  0  0  0  0  0  0  0  0  0
    1.5800    1.2989   -0.9221 H   0  0  0  0  0  0  0  0  0  0  0  0
  1  2  1  0
  2  3  1  0
  3  4  1  0
  4  5  1  0
  5  6  1  0
  6  7  1  0
  7  8  1  0
  8  9  1  0
  4  2  1  0
  9  7  1  0
  7  4  1  0
  1 10  1  0
  2 11  1  0
  3 12  1  0
  3 13  1  0
  5 14  1  0
  5 15  1  0
  8 16  1  0
  8 17  1  0
  9 18  1  0
  9 19  1  0
M  END
