
     RDKit          3D

 21 23  0  0  0  0  0  0  0  0999 V2000
   -0.2442   -2.2311    0.7152 O   0  0  0  0  0  0  0  0  0  0  0  0
   -0.5766   -1.2488   -0.2167 C   0  0  0  0  0  0  0  0  0  0  0  0
    0.6762   -0.5980   -0.7008 C   0  0  0  0  0  0  0  0  0  0  0  0
    1.8069   -0.4869    0.2745 C   0  0  0  0  0  0  0  0  0  0  0  0
    1.7599    1.0190    0.1469 C   0  0  0  0  0  0  0  0  0  0  0  0
    0.4636    0.8736   -0.6051 C   0  0  0  0  0  0  0  0  0  0  0  0
   -0.7573    1.0632    0.2367 C   0  0  0  0  0  0  0  0  0  0  0  0
   -2.0996    0.8572   -0.3400 C   0  0  0  0  0  0  0  0  0  0  0  0
   -1.4461   -0.2203    0.4113 C   0  0  0  0  0  0  0  0  0  0  0  0
   -0.9686   -2.3454    1.3878 H   0  0  0  0  0  0  0  0  0  0  0  0
   -1.0393   -1.7756   -1.0804 H   0  0  0  0  0  0  0  0  0  0  0  0
    1.0432   -0.9942   -1.6691 H   0  0  0  0  0  0  0  0  0  0  0  0
    1.5823   -0.8537    1.2858 H   0  0  0  0  0  0  0  0  0  0  0  0
    2.8068   -0.8377   -0.1043 H   0  0  0  0  0  0  0  0  0  0  0  0
    1.6379    1.5803    1.0802 H   0  0  0  0  0  0  0  0  0  0  0  0
    2.5625    1.4707   -0.4704 H   0  0  0  0  0  0  0  0  0  0  0  0
    0.4941    1.3784   -1.5767 H   0  0  0  0  0  0  0  0  0  0  0  0
   -0.6284    1.7299    1.1211 H   0  0  0  0  0  0  0  0  0  0  0  0
   -2.9258    1.3965    0.1618 H   0  0  0  0  0  0  0  0  0  0  0  0
   -2.2295    0.7427   -1.4435 H   0  0  0  0  0  0  0  0  0  0  0  0
   -1.9181   -0.5199    1.3858 H   0  0  0  0  0  0  0  0  0  0  0  0
  1  2  1  0
  2  3  1  0
  3  4  1  0
  4  5  1  0
  5  6  1  0
  6  7  1  0
  7  8  1  0
  8  9  1  0
  9  2  1  0
  6  3  1  0
  9  7  1  0
  1 10  1  0
  2 11  1  0
  3 12  1  0
  4 13  1  0
  4 14  1  0
  5 15  1  0
  5 16  1  0
  6 17  1  0
  7 18  1  0
  8 19  1  0
  8 20  1  0
  9 21  1  0
M  END
