
     RDKit          3D

 18 19  0  0  0  0  0  0  0  0999 V2000
    2.2501    0.0505   -1.5458 O   0  0  0  0  0  0  0  0  0  0  0  0
    1.7512   -0.2493   -0.2979 C   0  0  0  0  0  0  0  0  0  0  0  0
    1.4326    0.8455    0.6869 C   0  0  0  0  0  0  0  0  0  0  0  0
    0.3546    0.1655   -0.0176 C   0  0  0  0  0  0  0  0  0  0  0  0
   -0.5049   -0.8984    0.6027 C   0  0  0  0  0  0  0  0  0  0  0  0
   -1.8994   -0.4158    0.3243 C   0  0  0  0  0  0  0  0  0  0  0  0
   -1.7148    0.7486   -0.5996 C   0  0  0  0  0  0  0  0  0  0  0  0
   -0.3973    0.8191   -0.9646 O   0  0  0  0  0  0  0  0  0  0  0  0
    3.1736   -0.3400   -1.5856 H   0  0  0  0  0  0  0  0  0  0  0  0
    2.1652   -1.1646    0.2095 H   0  0  0  0  0  0  0  0  0  0  0  0
    1.7255    1.8581    0.3150 H   0  0  0  0  0  0  0  0  0  0  0  0
    1.6557    0.7176    1.7592 H   0  0  0  0  0  0  0  0  0  0  0  0
   -0.2948   -1.1072    1.6491 H   0  0  0  0  0  0  0  0  0  0  0  0
   -0.3322   -1.8347   -0.0053 H   0  0  0  0  0  0  0  0  0  0  0  0
   -2.4994   -1.2321   -0.1577 H   0  0  0  0  0  0  0  0  0  0  0  0
   -2.4485   -0.1556    1.2612 H   0  0  0  0  0  0  0  0  0  0  0  0
   -2.1106    1.6484   -0.0995 H   0  0  0  0  0  0  0  0  0  0  0  0
   -2.3067    0.5445   -1.5343 H   0  0  0  0  0  0  0  0  0  0  0  0
  1  2  1  0
  2  3  1  0
  3  4  1  0
  4  5  1  0
  5  6  1  0
  6  7  1  0
  7  8  1  0
  4  2  1  0
  8  4  1  0
  1  9  1  0
  2 10  1  0
  3 11  1  0
  3 12  1  0
  5 13  1  0
  5 14  1  0
  6 15  1  0
  6 16  1  0
  7 17  1  0
  7 18  1  0
M  END
