
     RDKit          3D

 19 20  0  0  0  0  0  0  0  0999 V2000
    2.0432   -0.1309   -1.0119 O   0  0  0  0  0  0  0  0  0  0  0  0
    1.2976    0.4460    0.0378 C   0  0  0  0  0  0  0  0  0  0  0  0
    1.0283   -0.6474    1.0269 C   0  0  0  0  0  0  0  0  0  0  0  0
    0.2744   -1.6779    0.5680 O   0  0  0  0  0  0  0  0  0  0  0  0
   -0.7996   -1.3973   -0.1925 C   0  0  0  0  0  0  0  0  0  0  0  0
   -1.8562   -0.5019    0.4677 C   0  0  0  0  0  0  0  0  0  0  0  0
   -1.0393   -0.0798   -0.6996 C   0  0  0  0  0  0  0  0  0  0  0  0
    0.0142    0.9601   -0.5531 C   0  0  0  0  0  0  0  0  0  0  0  0
   -0.4959    2.0584    0.1768 O   0  0  0  0  0  0  0  0  0  0  0  0
    2.9919    0.1511   -0.9473 H   0  0  0  0  0  0  0  0  0  0  0  0
    1.9029    1.2232    0.5089 H   0  0  0  0  0  0  0  0  0  0  0  0
    2.0445   -1.0669    1.2949 H   0  0  0  0  0  0  0  0  0  0  0  0
    0.6629   -0.2099    1.9990 H   0  0  0  0  0  0  0  0  0  0  0  0
   -1.1921   -2.2759   -0.7866 H   0  0  0  0  0  0  0  0  0  0  0  0
   -2.9003   -0.8653    0.3443 H   0  0  0  0  0  0  0  0  0  0  0  0
   -1.6231   -0.0291    1.4284 H   0  0  0  0  0  0  0  0  0  0  0  0
   -1.6338    0.0112   -1.6540 H   0  0  0  0  0  0  0  0  0  0  0  0
    0.2850    1.3994   -1.5550 H   0  0  0  0  0  0  0  0  0  0  0  0
   -1.0045    2.6329   -0.4527 H   0  0  0  0  0  0  0  0  0  0  0  0
  1  2  1  0
  2  3  1  0
  3  4  1  0
  4  5  1  0
  5  6  1  0
  6  7  1  0
  7  8  1  0
  8  9  1  0
  8  2  1  0
  7  5  1  0
  1 10  1  0
  2 11  1  0
  3 12  1  0
  3 13  1  0
  5 14  1  0
  6 15  1  0
  6 16  1  0
  7 17  1  0
  8 18  1  0
  9 19  1  0
M  END
