
     RDKit          3D

 19 21  0  0  0  0  0  0  0  0999 V2000
    2.9043   -0.2083   -1.2021 O   0  0  0  0  0  0  0  0  0  0  0  0
    1.7706   -0.7127   -0.5283 C   0  0  0  0  0  0  0  0  0  0  0  0
    1.8077   -0.5718    0.9507 C   0  0  0  0  0  0  0  0  0  0  0  0
    0.8689    0.2695    0.0841 C   0  0  0  0  0  0  0  0  0  0  0  0
   -0.5798    0.0004    0.3477 C   0  0  0  0  0  0  0  0  0  0  0  0
   -1.3620   -0.3161   -0.8836 C   0  0  0  0  0  0  0  0  0  0  0  0
   -2.5933    0.1491   -0.1778 C   0  0  0  0  0  0  0  0  0  0  0  0
   -1.5121    1.1425    0.0842 C   0  0  0  0  0  0  0  0  0  0  0  0
   -1.1658    1.0081   -1.2553 O   0  0  0  0  0  0  0  0  0  0  0  0
    3.3453    0.4673   -0.6127 H   0  0  0  0  0  0  0  0  0  0  0  0
    1.4271   -1.6670   -0.9720 H   0  0  0  0  0  0  0  0  0  0  0  0
    2.5811    0.0249    1.4633 H   0  0  0  0  0  0  0  0  0  0  0  0
    1.3828   -1.3739    1.5679 H   0  0  0  0  0  0  0  0  0  0  0  0
    1.1104    1.3472   -0.0452 H   0  0  0  0  0  0  0  0  0  0  0  0
   -0.8255   -0.5554    1.2632 H   0  0  0  0  0  0  0  0  0  0  0  0
   -1.2671   -1.1242   -1.4801 H   0  0  0  0  0  0  0  0  0  0  0  0
   -2.9335   -0.4580    0.6709 H   0  0  0  0  0  0  0  0  0  0  0  0
   -3.3809    0.5746   -0.8346 H   0  0  0  0  0  0  0  0  0  0  0  0
   -1.5784    2.0038    0.6015 H   0  0  0  0  0  0  0  0  0  0  0  0
  1  2  1  0
  2  3  1  0
  3  4  1  0
  4  5  1  0
  5  6  1  0
  6  7  1  0
  7  8  1  0
  8  9  1  0
  4  2  1  0
  8  5  1  0
  9  6  1  0
  1 10  1  0
  2 11  1  0
  3 12  1  0
  3 13  1  0
  4 14  1  0
  5 15  1  0
  6 16  1  0
  7 17  1  0
  7 18  1  0
  8 19  1  0
M  END
