
     RDKit          3D

 18 19  0  0  0  0  0  0  0  0999 V2000
   -2.7543    0.9715    0.3524 O   0  0  0  0  0  0  0  0  0  0  0  0
   -1.7381    0.2979   -0.2747 C   0  0  0  0  0  0  0  0  0  0  0  0
   -0.3743    0.9856   -0.2249 C   0  0  0  0  0  0  0  0  0  0  0  0
    0.2084   -0.4320   -0.1463 C   0  0  0  0  0  0  0  0  0  0  0  0
    1.4413   -0.5596    0.6771 C   0  0  0  0  0  0  0  0  0  0  0  0
    2.6121    0.2137    0.2904 C   0  0  0  0  0  0  0  0  0  0  0  0
    2.5414   -1.1813   -0.1379 O   0  0  0  0  0  0  0  0  0  0  0  0
   -1.0933   -0.8202    0.5571 C   0  0  0  0  0  0  0  0  0  0  0  0
   -3.6085    0.5714    0.0650 H   0  0  0  0  0  0  0  0  0  0  0  0
   -1.9668   -0.1253   -1.2810 H   0  0  0  0  0  0  0  0  0  0  0  0
   -0.2676    1.5694    0.6972 H   0  0  0  0  0  0  0  0  0  0  0  0
   -0.1000    1.5409   -1.1293 H   0  0  0  0  0  0  0  0  0  0  0  0
    0.2139   -0.9023   -1.1436 H   0  0  0  0  0  0  0  0  0  0  0  0
    1.4361   -1.0720    1.6557 H   0  0  0  0  0  0  0  0  0  0  0  0
    3.5055    0.3653    0.9233 H   0  0  0  0  0  0  0  0  0  0  0  0
    2.5459    0.9462   -0.5478 H   0  0  0  0  0  0  0  0  0  0  0  0
   -1.1531   -0.5519    1.6115 H   0  0  0  0  0  0  0  0  0  0  0  0
   -1.4486   -1.8174    0.2579 H   0  0  0  0  0  0  0  0  0  0  0  0
  1  2  1  0
  2  3  1  0
  3  4  1  0
  4  5  1  0
  5  6  1  0
  6  7  1  0
  4  8  1  0
  8  2  1  0
  7  5  1  0
  1  9  1  0
  2 10  1  0
  3 11  1  0
  3 12  1  0
  4 13  1  0
  5 14  1  0
  6 15  1  0
  6 16  1  0
  8 17  1  0
  8 18  1  0
M  END
