
     RDKit          3D

 18 19  0  0  0  0  0  0  0  0999 V2000
    1.4462   -0.2467   -1.2295 O   0  0  0  0  0  0  0  0  0  0  0  0
    1.1553   -0.2873    0.1268 C   0  0  0  0  0  0  0  0  0  0  0  0
    0.9975    1.1457    0.6562 C   0  0  0  0  0  0  0  0  0  0  0  0
   -0.0719    1.7490   -0.2060 C   0  0  0  0  0  0  0  0  0  0  0  0
   -1.1785    1.0144   -0.2997 C   0  0  0  0  0  0  0  0  0  0  0  0
   -1.3029   -0.2872    0.4060 C   0  0  0  0  0  0  0  0  0  0  0  0
   -1.0747   -1.4759   -0.5020 C   0  0  0  0  0  0  0  0  0  0  0  0
   -0.0569   -1.0741    0.4710 C   0  0  0  0  0  0  0  0  0  0  0  0
    2.1884   -0.8733   -1.4388 H   0  0  0  0  0  0  0  0  0  0  0  0
    2.0787   -0.6715    0.6483 H   0  0  0  0  0  0  0  0  0  0  0  0
    0.5556    1.0677    1.6718 H   0  0  0  0  0  0  0  0  0  0  0  0
    1.9337    1.6959    0.6277 H   0  0  0  0  0  0  0  0  0  0  0  0
    0.0184    2.6794   -0.7099 H   0  0  0  0  0  0  0  0  0  0  0  0
   -2.0238    1.3589   -0.9034 H   0  0  0  0  0  0  0  0  0  0  0  0
   -2.0702   -0.3572    1.2017 H   0  0  0  0  0  0  0  0  0  0  0  0
   -1.7084   -2.3607   -0.2723 H   0  0  0  0  0  0  0  0  0  0  0  0
   -0.9666   -1.3164   -1.5952 H   0  0  0  0  0  0  0  0  0  0  0  0
    0.0800   -1.7607    1.3474 H   0  0  0  0  0  0  0  0  0  0  0  0
  1  2  1  0
  2  3  1  0
  3  4  1  0
  4  5  2  0
  5  6  1  0
  6  7  1  0
  7  8  1  0
  8  2  1  0
  8  6  1  0
  1  9  1  0
  2 10  1  0
  3 11  1  0
  3 12  1  0
  4 13  1  0
  5 14  1  0
  6 15  1  0
  7 16  1  0
  7 17  1  0
  8 18  1  0
M  END
