
     RDKit          3D

 19 20  0  0  0  0  0  0  0  0999 V2000
   -1.3155    1.0212   -1.6512 O   0  0  0  0  0  0  0  0  0  0  0  0
   -1.2378    0.6686   -0.3266 C   0  0  0  0  0  0  0  0  0  0  0  0
   -1.6307   -0.7344   -0.0828 C   0  0  0  0  0  0  0  0  0  0  0  0
   -0.8380   -1.2865    0.8311 C   0  0  0  0  0  0  0  0  0  0  0  0
    0.1679   -0.2920    1.2862 C   0  0  0  0  0  0  0  0  0  0  0  0
    1.4253   -0.8391    1.2055 O   0  0  0  0  0  0  0  0  0  0  0  0
    1.9191   -0.6184   -0.0674 C   0  0  0  0  0  0  0  0  0  0  0  0
    1.2582    0.6194   -0.6078 C   0  0  0  0  0  0  0  0  0  0  0  0
    0.1010    0.8464    0.2984 C   0  0  0  0  0  0  0  0  0  0  0  0
   -2.2985    1.0900   -1.8712 H   0  0  0  0  0  0  0  0  0  0  0  0
   -1.9685    1.3203    0.2298 H   0  0  0  0  0  0  0  0  0  0  0  0
   -2.4482   -1.2501   -0.5744 H   0  0  0  0  0  0  0  0  0  0  0  0
   -0.9308   -2.3090    1.1757 H   0  0  0  0  0  0  0  0  0  0  0  0
   -0.1111    0.0221    2.3060 H   0  0  0  0  0  0  0  0  0  0  0  0
    3.0242   -0.5025    0.0245 H   0  0  0  0  0  0  0  0  0  0  0  0
    1.7553   -1.4977   -0.7125 H   0  0  0  0  0  0  0  0  0  0  0  0
    1.9716    1.4858   -0.6216 H   0  0  0  0  0  0  0  0  0  0  0  0
    0.9512    0.4342   -1.6464 H   0  0  0  0  0  0  0  0  0  0  0  0
    0.2053    1.8216    0.8046 H   0  0  0  0  0  0  0  0  0  0  0  0
  1  2  1  0
  2  3  1  0
  3  4  2  0
  4  5  1  0
  5  6  1  0
  6  7  1  0
  7  8  1  0
  8  9  1  0
  9  2  1  0
  9  5  1  0
  1 10  1  0
  2 11  1  0
  3 12  1  0
  4 13  1  0
  5 14  1  0
  7 15  1  0
  7 16  1  0
  8 17  1  0
  8 18  1  0
  9 19  1  0
M  END
