
     RDKit          3D

 17 20  0  0  0  0  0  0  0  0999 V2000
    2.4385    0.4033    0.3430 O   0  0  0  0  0  0  0  0  0  0  0  0
    1.3140   -0.3073    0.0093 C   0  0  0  0  0  0  0  0  0  0  0  0
    0.3353    0.4355   -0.9156 C   0  0  0  0  0  0  0  0  0  0  0  0
   -0.0431    1.2080    0.3474 C   0  0  0  0  0  0  0  0  0  0  0  0
   -1.3905    1.3936    0.2576 O   0  0  0  0  0  0  0  0  0  0  0  0
   -1.8837    0.1499   -0.1746 C   0  0  0  0  0  0  0  0  0  0  0  0
   -0.8880   -0.4065   -1.0665 C   0  0  0  0  0  0  0  0  0  0  0  0
   -1.0470   -0.8694    0.4269 C   0  0  0  0  0  0  0  0  0  0  0  0
    0.1465   -0.1693    0.9982 C   0  0  0  0  0  0  0  0  0  0  0  0
    3.1062   -0.2171    0.6999 H   0  0  0  0  0  0  0  0  0  0  0  0
    1.4398   -1.3506   -0.2992 H   0  0  0  0  0  0  0  0  0  0  0  0
    0.7429    0.9748   -1.7309 H   0  0  0  0  0  0  0  0  0  0  0  0
    0.6099    1.9861    0.6633 H   0  0  0  0  0  0  0  0  0  0  0  0
   -2.9606    0.0456   -0.3874 H   0  0  0  0  0  0  0  0  0  0  0  0
   -1.0072   -1.1723   -1.8064 H   0  0  0  0  0  0  0  0  0  0  0  0
   -1.2776   -1.9014    0.6041 H   0  0  0  0  0  0  0  0  0  0  0  0
    0.3645   -0.2028    2.0309 H   0  0  0  0  0  0  0  0  0  0  0  0
  1  2  1  0
  2  3  1  0
  3  4  1  0
  4  5  1  0
  5  6  1  0
  6  7  1  0
  7  8  1  0
  8  9  1  0
  9  2  1  0
  7  3  1  0
  9  4  1  0
  8  6  1  0
  1 10  1  0
  2 11  1  0
  3 12  1  0
  4 13  1  0
  6 14  1  0
  7 15  1  0
  8 16  1  0
  9 17  1  0
M  END
