
     RDKit          3D

 19 21  0  0  0  0  0  0  0  0999 V2000
    2.3911    1.0340   -0.7257 O   0  0  0  0  0  0  0  0  0  0  0  0
    1.6086    0.6886    0.3677 C   0  0  0  0  0  0  0  0  0  0  0  0
    1.4408   -0.8044    0.6668 C   0  0  0  0  0  0  0  0  0  0  0  0
    0.3794   -0.0748    0.0615 C   0  0  0  0  0  0  0  0  0  0  0  0
   -0.0899   -0.1206   -1.3373 C   0  0  0  0  0  0  0  0  0  0  0  0
   -1.3383    0.6250   -0.8522 C   0  0  0  0  0  0  0  0  0  0  0  0
   -2.2204   -0.1521    0.0311 C   0  0  0  0  0  0  0  0  0  0  0  0
   -0.9413    0.2607    0.6190 C   0  0  0  0  0  0  0  0  0  0  0  0
   -0.9648    1.3147    1.5289 O   0  0  0  0  0  0  0  0  0  0  0  0
    3.3183    0.7494   -0.5235 H   0  0  0  0  0  0  0  0  0  0  0  0
    1.5083    1.4054    1.2015 H   0  0  0  0  0  0  0  0  0  0  0  0
    1.3637   -1.0628    1.7570 H   0  0  0  0  0  0  0  0  0  0  0  0
    2.1004   -1.5116    0.1298 H   0  0  0  0  0  0  0  0  0  0  0  0
    0.4957    0.5389   -2.0314 H   0  0  0  0  0  0  0  0  0  0  0  0
   -0.2769   -1.0862   -1.7998 H   0  0  0  0  0  0  0  0  0  0  0  0
   -1.4202    1.6962   -1.0271 H   0  0  0  0  0  0  0  0  0  0  0  0
   -2.3222   -1.2373   -0.2214 H   0  0  0  0  0  0  0  0  0  0  0  0
   -3.1355    0.3739    0.3816 H   0  0  0  0  0  0  0  0  0  0  0  0
   -1.8965    1.5129    1.7735 H   0  0  0  0  0  0  0  0  0  0  0  0
  1  2  1  0
  2  3  1  0
  3  4  1  0
  4  5  1  0
  5  6  1  0
  6  7  1  0
  7  8  1  0
  8  9  1  0
  4  2  1  0
  8  6  1  0
  8  4  1  0
  1 10  1  0
  2 11  1  0
  3 12  1  0
  3 13  1  0
  5 14  1  0
  5 15  1  0
  6 16  1  0
  7 17  1  0
  7 18  1  0
  9 19  1  0
M  END
