
     RDKit          3D

 14 14  0  0  0  0  0  0  0  0999 V2000
   -1.8277    0.8913    0.3797 O   0  0  0  0  0  0  0  0  0  0  0  0
   -0.6776    0.1750    0.4480 C   0  0  0  0  0  0  0  0  0  0  0  0
    0.5254    0.9114   -0.1658 C   0  0  0  0  0  0  0  0  0  0  0  0
    1.4471   -0.3186   -0.1899 C   0  0  0  0  0  0  0  0  0  0  0  0
    0.6432   -1.2099   -0.8866 O   0  0  0  0  0  0  0  0  0  0  0  0
   -0.6520   -1.0423   -0.4644 C   0  0  0  0  0  0  0  0  0  0  0  0
   -1.9210    1.4241    1.2239 H   0  0  0  0  0  0  0  0  0  0  0  0
   -0.3515   -0.1264    1.4551 H   0  0  0  0  0  0  0  0  0  0  0  0
    0.2911    1.1674   -1.1979 H   0  0  0  0  0  0  0  0  0  0  0  0
    0.8989    1.7025    0.4680 H   0  0  0  0  0  0  0  0  0  0  0  0
    2.3947   -0.1225   -0.6637 H   0  0  0  0  0  0  0  0  0  0  0  0
    1.5227   -0.6099    0.8958 H   0  0  0  0  0  0  0  0  0  0  0  0
   -1.3142   -0.8828   -1.3483 H   0  0  0  0  0  0  0  0  0  0  0  0
   -0.9789   -1.9592    0.0461 H   0  0  0  0  0  0  0  0  0  0  0  0
  1  2  1  0
  2  3  1  0
  3  4  1  0
  4  5  1  0
  5  6  1  0
  6  2  1  0
  1  7  1  0
  2  8  1  0
  3  9  1  0
  3 10  1  0
  4 11  1  0
  4 12  1  0
  6 13  1  0
  6 14  1  0
M  END
