
     RDKit          3D

 19 21  0  0  0  0  0  0  0  0999 V2000
   -0.1481   -2.1517   -0.1858 O   0  0  0  0  0  0  0  0  0  0  0  0
   -0.6853   -1.1559    0.6509 C   0  0  0  0  0  0  0  0  0  0  0  0
   -1.8171   -0.3857    0.0475 C   0  0  0  0  0  0  0  0  0  0  0  0
   -1.6065    0.5452   -1.0802 C   0  0  0  0  0  0  0  0  0  0  0  0
   -0.9483    0.8888    0.2140 C   0  0  0  0  0  0  0  0  0  0  0  0
    0.1884    0.0532    0.7307 C   0  0  0  0  0  0  0  0  0  0  0  0
    1.4080   -0.0193   -0.1264 C   0  0  0  0  0  0  0  0  0  0  0  0
    2.4088    0.9921   -0.2406 C   0  0  0  0  0  0  0  0  0  0  0  0
    1.4725    0.7665   -1.3017 O   0  0  0  0  0  0  0  0  0  0  0  0
    0.4473   -2.6852    0.3736 H   0  0  0  0  0  0  0  0  0  0  0  0
   -0.9165   -1.5781    1.6490 H   0  0  0  0  0  0  0  0  0  0  0  0
   -2.7851   -0.4001    0.5696 H   0  0  0  0  0  0  0  0  0  0  0  0
   -2.4830    1.1945   -1.3242 H   0  0  0  0  0  0  0  0  0  0  0  0
   -1.0057    0.2873   -1.9663 H   0  0  0  0  0  0  0  0  0  0  0  0
   -1.4066    1.6558    0.8814 H   0  0  0  0  0  0  0  0  0  0  0  0
    0.4537    0.3751    1.7551 H   0  0  0  0  0  0  0  0  0  0  0  0
    1.7021   -1.0813   -0.3720 H   0  0  0  0  0  0  0  0  0  0  0  0
    3.4634    0.6924   -0.4589 H   0  0  0  0  0  0  0  0  0  0  0  0
    2.2579    2.0066    0.1844 H   0  0  0  0  0  0  0  0  0  0  0  0
  1  2  1  0
  2  3  1  0
  3  4  1  0
  4  5  1  0
  5  6  1  0
  6  7  1  0
  7  8  1  0
  8  9  1  0
  6  2  1  0
  9  7  1  0
  5  3  1  0
  1 10  1  0
  2 11  1  0
  3 12  1  0
  4 13  1  0
  4 14  1  0
  5 15  1  0
  6 16  1  0
  7 17  1  0
  8 18  1  0
  8 19  1  0
M  END
