
     RDKit          3D

 21 22  0  0  0  0  0  0  0  0999 V2000
    1.6354   -1.4635    0.2491 O   0  0  0  0  0  0  0  0  0  0  0  0
    1.2209   -0.4487   -0.6160 C   0  0  0  0  0  0  0  0  0  0  0  0
    1.2094    0.9019    0.0369 C   0  0  0  0  0  0  0  0  0  0  0  0
   -0.2781    1.2693    0.1269 C   0  0  0  0  0  0  0  0  0  0  0  0
   -0.8254    0.6012    1.3317 C   0  0  0  0  0  0  0  0  0  0  0  0
   -1.0693   -0.7067    1.2812 O   0  0  0  0  0  0  0  0  0  0  0  0
   -0.8528   -1.4336    0.1826 C   0  0  0  0  0  0  0  0  0  0  0  0
   -0.2302   -0.7565   -0.9840 C   0  0  0  0  0  0  0  0  0  0  0  0
   -0.8918    0.6235   -1.0994 C   0  0  0  0  0  0  0  0  0  0  0  0
    2.1133   -1.1409    1.0340 H   0  0  0  0  0  0  0  0  0  0  0  0
    1.8749   -0.4023   -1.4962 H   0  0  0  0  0  0  0  0  0  0  0  0
    1.7873    1.6593   -0.5067 H   0  0  0  0  0  0  0  0  0  0  0  0
    1.6071    0.8703    1.0817 H   0  0  0  0  0  0  0  0  0  0  0  0
   -0.4085    2.3492    0.1383 H   0  0  0  0  0  0  0  0  0  0  0  0
   -0.1229    0.8193    2.1889 H   0  0  0  0  0  0  0  0  0  0  0  0
   -1.7694    1.1512    1.6219 H   0  0  0  0  0  0  0  0  0  0  0  0
   -0.2233   -2.3410    0.4172 H   0  0  0  0  0  0  0  0  0  0  0  0
   -1.8319   -1.8726   -0.1689 H   0  0  0  0  0  0  0  0  0  0  0  0
   -0.3136   -1.3348   -1.8999 H   0  0  0  0  0  0  0  0  0  0  0  0
   -0.6509    1.1264   -2.0312 H   0  0  0  0  0  0  0  0  0  0  0  0
   -1.9803    0.5289   -0.8883 H   0  0  0  0  0  0  0  0  0  0  0  0
  1  2  1  0
  2  3  1  0
  3  4  1  0
  4  5  1  0
  5  6  1  0
  6  7  1  0
  7  8  1  0
  8  9  1  0
  8  2  1  0
  9  4  1  0
  1 10  1  0
  2 11  1  0
  3 12  1  0
  3 13  1  0
  4 14  1  0
  5 15  1  0
  5 16  1  0
  7 17  1  0
  7 18  1  0
  8 19  1  0
  9 20  1  0
  9 21  1  0
M  END
