
     RDKit          3D

 17 20  0  0  0  0  0  0  0  0999 V2000
    2.1919   -0.1057    0.0429 O   0  0  0  0  0  0  0  0  0  0  0  0
    0.9649    0.1272   -0.5429 C   0  0  0  0  0  0  0  0  0  0  0  0
    0.1665   -1.1528   -0.7540 C   0  0  0  0  0  0  0  0  0  0  0  0
   -1.2885   -1.0480   -0.1025 C   0  0  0  0  0  0  0  0  0  0  0  0
   -0.2715   -0.9088    0.4346 C   0  0  0  0  0  0  0  0  0  0  0  0
   -0.8746    0.4793   -0.2589 C   0  0  0  0  0  0  0  0  0  0  0  0
   -1.2263    0.2697    0.8280 C   0  0  0  0  0  0  0  0  0  0  0  0
    0.0917    1.0396    0.3397 C   0  0  0  0  0  0  0  0  0  0  0  0
    0.4092    2.1831    0.8153 O   0  0  0  0  0  0  0  0  0  0  0  0
    2.3013   -0.9871    0.4424 H   0  0  0  0  0  0  0  0  0  0  0  0
    1.0905    0.5992   -1.5381 H   0  0  0  0  0  0  0  0  0  0  0  0
    0.5095   -2.0500   -1.1257 H   0  0  0  0  0  0  0  0  0  0  0  0
   -2.1236   -1.0387   -0.8234 H   0  0  0  0  0  0  0  0  0  0  0  0
    0.1459   -0.9384    1.4085 H   0  0  0  0  0  0  0  0  0  0  0  0
   -1.2693    0.5042   -1.2462 H   0  0  0  0  0  0  0  0  0  0  0  0
   -1.2726    0.0681    1.9074 H   0  0  0  0  0  0  0  0  0  0  0  0
    0.4548    2.9591    0.1729 H   0  0  0  0  0  0  0  0  0  0  0  0
  1  2  1  0
  2  3  1  0
  3  4  1  0
  4  5  1  0
  5  6  1  0
  6  7  1  0
  7  8  1  0
  8  9  1  0
  8  2  1  0
  5  3  1  0
  8  6  1  0
  7  4  1  0
  1 10  1  0
  2 11  1  0
  3 12  1  0
  4 13  1  0
  5 14  1  0
  6 15  1  0
  7 16  1  0
  9 17  1  0
M  END
