
     RDKit          3D

 21 22  0  0  0  0  0  0  0  0999 V2000
    2.8728   -0.2725   -0.2091 O   0  0  0  0  0  0  0  0  0  0  0  0
    1.6801   -0.2521    0.4757 C   0  0  0  0  0  0  0  0  0  0  0  0
    0.6879   -1.2885   -0.0507 C   0  0  0  0  0  0  0  0  0  0  0  0
   -0.6055   -0.7801    0.5130 C   0  0  0  0  0  0  0  0  0  0  0  0
   -1.7805   -0.9627   -0.3909 C   0  0  0  0  0  0  0  0  0  0  0  0
   -1.7851    0.1079   -1.2640 O   0  0  0  0  0  0  0  0  0  0  0  0
   -1.3980    1.2305   -0.5151 C   0  0  0  0  0  0  0  0  0  0  0  0
   -0.4589    0.7356    0.5490 C   0  0  0  0  0  0  0  0  0  0  0  0
    0.9520    1.0366    0.1148 C   0  0  0  0  0  0  0  0  0  0  0  0
    3.1055    0.6100   -0.6208 H   0  0  0  0  0  0  0  0  0  0  0  0
    1.7876   -0.3824    1.5648 H   0  0  0  0  0  0  0  0  0  0  0  0
    0.9324   -2.2948    0.3545 H   0  0  0  0  0  0  0  0  0  0  0  0
    0.7121   -1.3621   -1.1431 H   0  0  0  0  0  0  0  0  0  0  0  0
   -0.7380   -1.1862    1.5210 H   0  0  0  0  0  0  0  0  0  0  0  0
   -1.7987   -1.9027   -0.9483 H   0  0  0  0  0  0  0  0  0  0  0  0
   -2.7015   -0.8597    0.2433 H   0  0  0  0  0  0  0  0  0  0  0  0
   -2.2751    1.7708   -0.0990 H   0  0  0  0  0  0  0  0  0  0  0  0
   -0.8749    1.9021   -1.2429 H   0  0  0  0  0  0  0  0  0  0  0  0
   -0.6735    1.1349    1.5534 H   0  0  0  0  0  0  0  0  0  0  0  0
    1.3886    1.9192    0.5897 H   0  0  0  0  0  0  0  0  0  0  0  0
    0.9707    1.0961   -0.9952 H   0  0  0  0  0  0  0  0  0  0  0  0
  1  2  1  0
  2  3  1  0
  3  4  1  0
  4  5  1  0
  5  6  1  0
  6  7  1  0
  7  8  1  0
  8  9  1  0
  9  2  1  0
  8  4  1  0
  1 10  1  0
  2 11  1  0
  3 12  1  0
  3 13  1  0
  4 14  1  0
  5 15  1  0
  5 16  1  0
  7 17  1  0
  7 18  1  0
  8 19  1  0
  9 20  1  0
  9 21  1  0
M  END
