
     RDKit          3D

 19 21  0  0  0  0  0  0  0  0999 V2000
   -1.6740   -0.7698   -1.1362 O   0  0  0  0  0  0  0  0  0  0  0  0
   -0.4587   -0.1548   -1.0838 C   0  0  0  0  0  0  0  0  0  0  0  0
    0.5289   -1.0147   -0.2726 C   0  0  0  0  0  0  0  0  0  0  0  0
   -0.2710   -1.1152    1.0166 C   0  0  0  0  0  0  0  0  0  0  0  0
   -0.7584    0.3154    1.1882 C   0  0  0  0  0  0  0  0  0  0  0  0
   -0.4342    1.0277   -0.1043 C   0  0  0  0  0  0  0  0  0  0  0  0
    1.0358    1.3359   -0.0880 C   0  0  0  0  0  0  0  0  0  0  0  0
    1.8288    0.7545    0.9381 O   0  0  0  0  0  0  0  0  0  0  0  0
    1.6778   -0.0580   -0.1493 C   0  0  0  0  0  0  0  0  0  0  0  0
   -2.2918   -0.2192   -1.6632 H   0  0  0  0  0  0  0  0  0  0  0  0
   -0.0011    0.1024   -2.0332 H   0  0  0  0  0  0  0  0  0  0  0  0
    0.7464   -1.9591   -0.7388 H   0  0  0  0  0  0  0  0  0  0  0  0
   -1.1771   -1.7139    0.7642 H   0  0  0  0  0  0  0  0  0  0  0  0
    0.2986   -1.4839    1.8594 H   0  0  0  0  0  0  0  0  0  0  0  0
   -0.0848    0.7593    1.9781 H   0  0  0  0  0  0  0  0  0  0  0  0
   -1.8009    0.3865    1.4895 H   0  0  0  0  0  0  0  0  0  0  0  0
   -1.0896    1.8292   -0.3739 H   0  0  0  0  0  0  0  0  0  0  0  0
    1.4570    2.1371   -0.6900 H   0  0  0  0  0  0  0  0  0  0  0  0
    2.4683   -0.1593   -0.9007 H   0  0  0  0  0  0  0  0  0  0  0  0
  1  2  1  0
  2  3  1  0
  3  4  1  0
  4  5  1  0
  5  6  1  0
  6  7  1  0
  7  8  1  0
  8  9  1  0
  6  2  1  0
  9  7  1  0
  9  3  1  0
  1 10  1  0
  2 11  1  0
  3 12  1  0
  4 13  1  0
  4 14  1  0
  5 15  1  0
  5 16  1  0
  6 17  1  0
  7 18  1  0
  9 19  1  0
M  END
