
     RDKit          3D

 21 22  0  0  0  0  0  0  0  0999 V2000
    2.4339    1.0583   -0.9226 O   0  0  0  0  0  0  0  0  0  0  0  0
    1.7963   -0.1062   -0.6009 C   0  0  0  0  0  0  0  0  0  0  0  0
    1.4363   -0.2398    0.8867 C   0  0  0  0  0  0  0  0  0  0  0  0
    0.1786   -0.9722    0.3909 C   0  0  0  0  0  0  0  0  0  0  0  0
   -1.0901   -0.5783    1.0849 C   0  0  0  0  0  0  0  0  0  0  0  0
   -2.1219   -0.2483   -0.0056 C   0  0  0  0  0  0  0  0  0  0  0  0
   -1.6583    1.0985   -0.4877 C   0  0  0  0  0  0  0  0  0  0  0  0
   -0.4067    1.0935   -0.9230 C   0  0  0  0  0  0  0  0  0  0  0  0
    0.3201   -0.1804   -0.8746 C   0  0  0  0  0  0  0  0  0  0  0  0
    2.9781    1.4199   -0.1522 H   0  0  0  0  0  0  0  0  0  0  0  0
    2.3172   -1.0097   -0.9810 H   0  0  0  0  0  0  0  0  0  0  0  0
    1.2279    0.7128    1.3811 H   0  0  0  0  0  0  0  0  0  0  0  0
    2.0651   -0.9355    1.4463 H   0  0  0  0  0  0  0  0  0  0  0  0
    0.3368   -2.0657    0.2816 H   0  0  0  0  0  0  0  0  0  0  0  0
   -1.5172   -1.3721    1.7234 H   0  0  0  0  0  0  0  0  0  0  0  0
   -0.8672    0.3557    1.6666 H   0  0  0  0  0  0  0  0  0  0  0  0
   -2.0540   -0.9841   -0.8335 H   0  0  0  0  0  0  0  0  0  0  0  0
   -3.1356   -0.2094    0.4222 H   0  0  0  0  0  0  0  0  0  0  0  0
   -2.2974    1.9495   -0.4674 H   0  0  0  0  0  0  0  0  0  0  0  0
    0.0316    2.0243   -1.2964 H   0  0  0  0  0  0  0  0  0  0  0  0
    0.0266   -0.8109   -1.7388 H   0  0  0  0  0  0  0  0  0  0  0  0
  1  2  1  0
  2  3  1  0
  3  4  1  0
  4  5  1  0
  5  6  1  0
  6  7  1  0
  7  8  2  0
  8  9  1  0
  9  2  1  0
  9  4  1  0
  1 10  1  0
  2 11  1  0
  3 12  1  0
  3 13  1  0
  4 14  1  0
  5 15  1  0
  5 16  1  0
  6 17  1  0
  6 18  1  0
  7 19  1  0
  8 20  1  0
  9 21  1  0
M  END
