
     RDKit          3D

 19 20  0  0  0  0  0  0  0  0999 V2000
    1.9773    0.7317    1.0786 O   0  0  0  0  0  0  0  0  0  0  0  0
    1.1019    0.2294    0.1390 C   0  0  0  0  0  0  0  0  0  0  0  0
    0.3671   -1.0007    0.6241 C   0  0  0  0  0  0  0  0  0  0  0  0
    1.1348   -2.1391    0.6120 O   0  0  0  0  0  0  0  0  0  0  0  0
   -0.8013   -1.0590   -0.3356 C   0  0  0  0  0  0  0  0  0  0  0  0
   -2.0603   -0.3431   -0.0045 C   0  0  0  0  0  0  0  0  0  0  0  0
   -1.0423    0.3547   -0.8082 C   0  0  0  0  0  0  0  0  0  0  0  0
   -0.0498    1.1995   -0.0815 C   0  0  0  0  0  0  0  0  0  0  0  0
    0.3245    2.2952   -0.8421 O   0  0  0  0  0  0  0  0  0  0  0  0
    2.8852    0.4361    0.8419 H   0  0  0  0  0  0  0  0  0  0  0  0
    1.5870    0.0649   -0.8279 H   0  0  0  0  0  0  0  0  0  0  0  0
   -0.0098   -0.8416    1.6369 H   0  0  0  0  0  0  0  0  0  0  0  0
    1.4358   -2.3648   -0.3123 H   0  0  0  0  0  0  0  0  0  0  0  0
   -0.7331   -1.8091   -1.1290 H   0  0  0  0  0  0  0  0  0  0  0  0
   -2.1912   -0.0064    1.0387 H   0  0  0  0  0  0  0  0  0  0  0  0
   -2.9771   -0.7838   -0.4726 H   0  0  0  0  0  0  0  0  0  0  0  0
   -1.1331    0.5237   -1.8919 H   0  0  0  0  0  0  0  0  0  0  0  0
   -0.4175    1.5069    0.9228 H   0  0  0  0  0  0  0  0  0  0  0  0
    0.6018    3.0055   -0.1884 H   0  0  0  0  0  0  0  0  0  0  0  0
  1  2  1  0
  2  3  1  0
  3  4  1  0
  3  5  1  0
  5  6  1  0
  6  7  1  0
  7  8  1  0
  8  9  1  0
  8  2  1  0
  7  5  1  0
  1 10  1  0
  2 11  1  0
  3 12  1  0
  4 13  1  0
  5 14  1  0
  6 15  1  0
  6 16  1  0
  7 17  1  0
  8 18  1  0
  9 19  1  0
M  END
