
     RDKit          3D

 23 24  0  0  0  0  0  0  0  0999 V2000
   -2.1553   -0.7340    0.9459 O   0  0  0  0  0  0  0  0  0  0  0  0
   -1.6093    0.1176   -0.0478 C   0  0  0  0  0  0  0  0  0  0  0  0
   -0.9408   -0.7559   -1.0377 C   0  0  0  0  0  0  0  0  0  0  0  0
    0.1670   -1.6244   -0.4504 C   0  0  0  0  0  0  0  0  0  0  0  0
    0.9626   -0.7473    0.4384 C   0  0  0  0  0  0  0  0  0  0  0  0
    2.3084   -0.2699    0.2485 C   0  0  0  0  0  0  0  0  0  0  0  0
    1.2929    0.4933   -0.4518 C   0  0  0  0  0  0  0  0  0  0  0  0
    0.4621    1.5825    0.0686 C   0  0  0  0  0  0  0  0  0  0  0  0
   -0.8879    1.2097    0.5734 C   0  0  0  0  0  0  0  0  0  0  0  0
   -1.9844   -0.3890    1.8360 H   0  0  0  0  0  0  0  0  0  0  0  0
   -2.5329    0.5118   -0.5754 H   0  0  0  0  0  0  0  0  0  0  0  0
   -0.6343   -0.2591   -1.9802 H   0  0  0  0  0  0  0  0  0  0  0  0
   -1.7209   -1.5110   -1.3647 H   0  0  0  0  0  0  0  0  0  0  0  0
    0.8129   -1.9747   -1.2813 H   0  0  0  0  0  0  0  0  0  0  0  0
   -0.2303   -2.5213    0.0449 H   0  0  0  0  0  0  0  0  0  0  0  0
    0.4780   -0.5534    1.4167 H   0  0  0  0  0  0  0  0  0  0  0  0
    3.0478   -0.8484   -0.3580 H   0  0  0  0  0  0  0  0  0  0  0  0
    2.8088    0.2191    1.1115 H   0  0  0  0  0  0  0  0  0  0  0  0
    1.2534    0.3676   -1.5504 H   0  0  0  0  0  0  0  0  0  0  0  0
    1.0370    2.1055    0.8902 H   0  0  0  0  0  0  0  0  0  0  0  0
    0.3453    2.3900   -0.7141 H   0  0  0  0  0  0  0  0  0  0  0  0
   -1.5051    2.1617    0.5514 H   0  0  0  0  0  0  0  0  0  0  0  0
   -0.7749    1.0297    1.6862 H   0  0  0  0  0  0  0  0  0  0  0  0
  1  2  1  0
  2  3  1  0
  3  4  1  0
  4  5  1  0
  5  6  1  0
  6  7  1  0
  7  8  1  0
  8  9  1  0
  9  2  1  0
  7  5  1  0
  1 10  1  0
  2 11  1  0
  3 12  1  0
  3 13  1  0
  4 14  1  0
  4 15  1  0
  5 16  1  0
  6 17  1  0
  6 18  1  0
  7 19  1  0
  8 20  1  0
  8 21  1  0
  9 22  1  0
  9 23  1  0
M  END
