
     RDKit          3D

 19 20  0  0  0  0  0  0  0  0999 V2000
    0.7646   -1.2681   -0.7081 O   0  0  0  0  0  0  0  0  0  0  0  0
    1.2808   -0.6444    0.4087 C   0  0  0  0  0  0  0  0  0  0  0  0
    2.4334    0.3122    0.1468 C   0  0  0  0  0  0  0  0  0  0  0  0
    1.5482    1.3607    0.4664 O   0  0  0  0  0  0  0  0  0  0  0  0
    0.5290    0.5294    0.9345 C   0  0  0  0  0  0  0  0  0  0  0  0
   -0.8105    0.8050    0.3144 C   0  0  0  0  0  0  0  0  0  0  0  0
   -1.7620   -0.3428    0.4945 C   0  0  0  0  0  0  0  0  0  0  0  0
   -2.1690    0.1224   -0.8826 C   0  0  0  0  0  0  0  0  0  0  0  0
   -0.8937    0.6685   -1.0497 O   0  0  0  0  0  0  0  0  0  0  0  0
    1.5230   -1.5175   -1.2937 H   0  0  0  0  0  0  0  0  0  0  0  0
    1.5819   -1.3908    1.1715 H   0  0  0  0  0  0  0  0  0  0  0  0
    3.2795    0.2100    0.8712 H   0  0  0  0  0  0  0  0  0  0  0  0
    2.7435    0.2993   -0.9023 H   0  0  0  0  0  0  0  0  0  0  0  0
    0.4616    0.5369    2.0402 H   0  0  0  0  0  0  0  0  0  0  0  0
   -1.2477    1.7328    0.7005 H   0  0  0  0  0  0  0  0  0  0  0  0
   -1.3309   -1.3512    0.4620 H   0  0  0  0  0  0  0  0  0  0  0  0
   -2.5564   -0.1877    1.2622 H   0  0  0  0  0  0  0  0  0  0  0  0
   -2.9902    0.8419   -0.8784 H   0  0  0  0  0  0  0  0  0  0  0  0
   -2.3851   -0.7167   -1.5972 H   0  0  0  0  0  0  0  0  0  0  0  0
  1  2  1  0
  2  3  1  0
  3  4  1  0
  4  5  1  0
  5  6  1  0
  6  7  1  0
  7  8  1  0
  8  9  1  0
  5  2  1  0
  9  6  1  0
  1 10  1  0
  2 11  1  0
  3 12  1  0
  3 13  1  0
  5 14  1  0
  6 15  1  0
  7 16  1  0
  7 17  1  0
  8 18  1  0
  8 19  1  0
M  END
