
     RDKit          3D

 21 23  0  0  0  0  0  0  0  0999 V2000
   -2.6685    0.8266    1.1522 O   0  0  0  0  0  0  0  0  0  0  0  0
   -2.5774    0.0922   -0.0444 C   0  0  0  0  0  0  0  0  0  0  0  0
   -1.7906   -1.1879    0.0994 C   0  0  0  0  0  0  0  0  0  0  0  0
   -1.2672   -0.0437   -0.7128 C   0  0  0  0  0  0  0  0  0  0  0  0
   -0.0509    0.7244   -0.1611 C   0  0  0  0  0  0  0  0  0  0  0  0
    1.1710    0.5455   -0.8527 C   0  0  0  0  0  0  0  0  0  0  0  0
    2.1972   -0.5763   -0.6819 C   0  0  0  0  0  0  0  0  0  0  0  0
    2.4475    0.2460    0.6069 C   0  0  0  0  0  0  0  0  0  0  0  0
    0.9248    0.0900    0.6502 C   0  0  0  0  0  0  0  0  0  0  0  0
   -2.6760    1.8059    0.9772 H   0  0  0  0  0  0  0  0  0  0  0  0
   -3.5221    0.0900   -0.6158 H   0  0  0  0  0  0  0  0  0  0  0  0
   -1.2954   -1.4103    1.0644 H   0  0  0  0  0  0  0  0  0  0  0  0
   -2.2378   -2.0588   -0.3814 H   0  0  0  0  0  0  0  0  0  0  0  0
   -1.2739   -0.2342   -1.8105 H   0  0  0  0  0  0  0  0  0  0  0  0
   -0.3976    1.7480    0.1766 H   0  0  0  0  0  0  0  0  0  0  0  0
    1.7858    1.4992   -0.9430 H   0  0  0  0  0  0  0  0  0  0  0  0
    1.7226   -1.5436   -0.5053 H   0  0  0  0  0  0  0  0  0  0  0  0
    3.0110   -0.5257   -1.4016 H   0  0  0  0  0  0  0  0  0  0  0  0
    2.8062    1.2467    0.3673 H   0  0  0  0  0  0  0  0  0  0  0  0
    2.9497   -0.3046    1.3956 H   0  0  0  0  0  0  0  0  0  0  0  0
    0.7415   -1.0296    0.7528 H   0  0  0  0  0  0  0  0  0  0  0  0
  1  2  1  0
  2  3  1  0
  3  4  1  0
  4  5  1  0
  5  6  1  0
  6  7  1  0
  7  8  1  0
  8  9  1  0
  4  2  1  0
  9  5  1  0
  9  6  1  0
  1 10  1  0
  2 11  1  0
  3 12  1  0
  3 13  1  0
  4 14  1  0
  5 15  1  0
  6 16  1  0
  7 17  1  0
  7 18  1  0
  8 19  1  0
  8 20  1  0
  9 21  1  0
M  END
