
     RDKit          3D

 21 22  0  0  0  0  0  0  0  0999 V2000
    1.9864    0.7065    1.2645 O   0  0  0  0  0  0  0  0  0  0  0  0
    1.5178    0.3556   -0.0233 C   0  0  0  0  0  0  0  0  0  0  0  0
    0.6024    1.4182   -0.5036 C   0  0  0  0  0  0  0  0  0  0  0  0
   -0.8351    1.2317   -0.1297 C   0  0  0  0  0  0  0  0  0  0  0  0
   -1.3534   -0.1210   -0.4267 C   0  0  0  0  0  0  0  0  0  0  0  0
   -1.7544   -0.9212    0.7879 C   0  0  0  0  0  0  0  0  0  0  0  0
   -1.1880   -2.0386    0.1563 O   0  0  0  0  0  0  0  0  0  0  0  0
   -0.3699   -1.1899   -0.6265 C   0  0  0  0  0  0  0  0  0  0  0  0
    0.9687   -1.0236   -0.0343 C   0  0  0  0  0  0  0  0  0  0  0  0
    2.7277    0.0651    1.4791 H   0  0  0  0  0  0  0  0  0  0  0  0
    2.4441    0.4074   -0.6704 H   0  0  0  0  0  0  0  0  0  0  0  0
    0.6450    1.5694   -1.6159 H   0  0  0  0  0  0  0  0  0  0  0  0
    0.9288    2.3942   -0.0453 H   0  0  0  0  0  0  0  0  0  0  0  0
   -1.4162    2.0204   -0.6915 H   0  0  0  0  0  0  0  0  0  0  0  0
   -1.0039    1.4845    0.9464 H   0  0  0  0  0  0  0  0  0  0  0  0
   -2.1369   -0.0983   -1.2220 H   0  0  0  0  0  0  0  0  0  0  0  0
   -1.2454   -0.5889    1.7040 H   0  0  0  0  0  0  0  0  0  0  0  0
   -2.8515   -0.9920    0.9036 H   0  0  0  0  0  0  0  0  0  0  0  0
   -0.3303   -1.5461   -1.6912 H   0  0  0  0  0  0  0  0  0  0  0  0
    0.9851   -1.4219    1.0214 H   0  0  0  0  0  0  0  0  0  0  0  0
    1.6791   -1.7115   -0.5828 H   0  0  0  0  0  0  0  0  0  0  0  0
  1  2  1  0
  2  3  1  0
  3  4  1  0
  4  5  1  0
  5  6  1  0
  6  7  1  0
  7  8  1  0
  8  9  1  0
  9  2  1  0
  8  5  1  0
  1 10  1  0
  2 11  1  0
  3 12  1  0
  3 13  1  0
  4 14  1  0
  4 15  1  0
  5 16  1  0
  6 17  1  0
  6 18  1  0
  8 19  1  0
  9 20  1  0
  9 21  1  0
M  END
