
     RDKit          3D

 19 20  0  0  0  0  0  0  0  0999 V2000
   -1.4199   -0.7228    1.0459 O   0  0  0  0  0  0  0  0  0  0  0  0
   -1.4907   -0.2909   -0.2816 C   0  0  0  0  0  0  0  0  0  0  0  0
   -1.2332    1.1849   -0.2988 C   0  0  0  0  0  0  0  0  0  0  0  0
    0.1355    1.4538    0.1960 C   0  0  0  0  0  0  0  0  0  0  0  0
    1.0563    0.5392    0.3186 C   0  0  0  0  0  0  0  0  0  0  0  0
    2.3841   -0.0522    0.6341 C   0  0  0  0  0  0  0  0  0  0  0  0
    2.1086   -0.9519   -0.4401 O   0  0  0  0  0  0  0  0  0  0  0  0
    0.8139   -0.9084   -0.0149 C   0  0  0  0  0  0  0  0  0  0  0  0
   -0.3074   -0.9577   -1.0034 C   0  0  0  0  0  0  0  0  0  0  0  0
   -2.2669   -0.6489    1.5199 H   0  0  0  0  0  0  0  0  0  0  0  0
   -2.4482   -0.5730   -0.7566 H   0  0  0  0  0  0  0  0  0  0  0  0
   -2.0054    1.7632    0.2526 H   0  0  0  0  0  0  0  0  0  0  0  0
   -1.2416    1.5197   -1.3688 H   0  0  0  0  0  0  0  0  0  0  0  0
    0.4256    2.4698    0.4848 H   0  0  0  0  0  0  0  0  0  0  0  0
    3.2401    0.6095    0.4359 H   0  0  0  0  0  0  0  0  0  0  0  0
    2.3557   -0.5775    1.5959 H   0  0  0  0  0  0  0  0  0  0  0  0
    0.5790   -1.5078    0.8856 H   0  0  0  0  0  0  0  0  0  0  0  0
   -0.0801   -0.3775   -1.9205 H   0  0  0  0  0  0  0  0  0  0  0  0
   -0.6056   -1.9714   -1.2847 H   0  0  0  0  0  0  0  0  0  0  0  0
  1  2  1  0
  2  3  1  0
  3  4  1  0
  4  5  2  0
  5  6  1  0
  6  7  1  0
  7  8  1  0
  8  9  1  0
  9  2  1  0
  8  5  1  0
  1 10  1  0
  2 11  1  0
  3 12  1  0
  3 13  1  0
  4 14  1  0
  6 15  1  0
  6 16  1  0
  8 17  1  0
  9 18  1  0
  9 19  1  0
M  END
