
     RDKit          3D

 23 23  0  0  0  0  0  0  0  0999 V2000
    2.7325    0.0916    0.2175 O   0  0  0  0  0  0  0  0  0  0  0  0
    1.3516    0.2177    0.4984 C   0  0  0  0  0  0  0  0  0  0  0  0
    0.8179    1.2315   -0.4825 C   0  0  0  0  0  0  0  0  0  0  0  0
   -0.5571    1.7055   -0.1792 C   0  0  0  0  0  0  0  0  0  0  0  0
   -1.4503    0.6887    0.4491 C   0  0  0  0  0  0  0  0  0  0  0  0
   -1.5938   -0.5753   -0.3353 C   0  0  0  0  0  0  0  0  0  0  0  0
   -0.3133   -1.2415   -0.6906 C   0  0  0  0  0  0  0  0  0  0  0  0
    0.7438   -1.1329    0.3662 C   0  0  0  0  0  0  0  0  0  0  0  0
    0.1680   -1.4795    1.5833 O   0  0  0  0  0  0  0  0  0  0  0  0
    2.7890   -0.0751   -0.7592 H   0  0  0  0  0  0  0  0  0  0  0  0
    1.2482    0.6606    1.5078 H   0  0  0  0  0  0  0  0  0  0  0  0
    1.5081    2.1233   -0.4020 H   0  0  0  0  0  0  0  0  0  0  0  0
    0.9559    0.8914   -1.5452 H   0  0  0  0  0  0  0  0  0  0  0  0
   -0.4940    2.5664    0.5348 H   0  0  0  0  0  0  0  0  0  0  0  0
   -1.0378    2.1083   -1.0930 H   0  0  0  0  0  0  0  0  0  0  0  0
   -1.1233    0.4672    1.4899 H   0  0  0  0  0  0  0  0  0  0  0  0
   -2.4625    1.1399    0.5439 H   0  0  0  0  0  0  0  0  0  0  0  0
   -2.1835   -1.2881    0.3010 H   0  0  0  0  0  0  0  0  0  0  0  0
   -2.1894   -0.4327   -1.2508 H   0  0  0  0  0  0  0  0  0  0  0  0
    0.0546   -0.9320   -1.6993 H   0  0  0  0  0  0  0  0  0  0  0  0
   -0.5301   -2.3453   -0.8089 H   0  0  0  0  0  0  0  0  0  0  0  0
    1.5086   -1.9302    0.1346 H   0  0  0  0  0  0  0  0  0  0  0  0
    0.0571   -2.4595    1.6196 H   0  0  0  0  0  0  0  0  0  0  0  0
  1  2  1  0
  2  3  1  0
  3  4  1  0
  4  5  1  0
  5  6  1  0
  6  7  1  0
  7  8  1  0
  8  9  1  0
  8  2  1  0
  1 10  1  0
  2 11  1  0
  3 12  1  0
  3 13  1  0
  4 14  1  0
  4 15  1  0
  5 16  1  0
  5 17  1  0
  6 18  1  0
  6 19  1  0
  7 20  1  0
  7 21  1  0
  8 22  1  0
  9 23  1  0
M  END
