
     RDKit          3D

 19 22  0  0  0  0  0  0  0  0999 V2000
    1.9729    0.6754    1.5407 O   0  0  0  0  0  0  0  0  0  0  0  0
    1.3392    0.5579    0.3258 C   0  0  0  0  0  0  0  0  0  0  0  0
    0.6853   -0.7383    0.0656 C   0  0  0  0  0  0  0  0  0  0  0  0
   -0.6847   -0.6788    0.7542 C   0  0  0  0  0  0  0  0  0  0  0  0
   -1.1548   -1.4226   -0.5067 C   0  0  0  0  0  0  0  0  0  0  0  0
   -0.1611   -0.4560   -1.1758 C   0  0  0  0  0  0  0  0  0  0  0  0
   -0.6120    0.9445   -0.9031 C   0  0  0  0  0  0  0  0  0  0  0  0
    0.1710    1.5218    0.1908 C   0  0  0  0  0  0  0  0  0  0  0  0
   -1.0108    0.7717    0.6068 C   0  0  0  0  0  0  0  0  0  0  0  0
    2.7507    0.0728    1.5332 H   0  0  0  0  0  0  0  0  0  0  0  0
    2.0186    0.7879   -0.5463 H   0  0  0  0  0  0  0  0  0  0  0  0
    1.2117   -1.6624    0.1056 H   0  0  0  0  0  0  0  0  0  0  0  0
   -0.7897   -1.1765    1.6845 H   0  0  0  0  0  0  0  0  0  0  0  0
   -0.7901   -2.4575   -0.4436 H   0  0  0  0  0  0  0  0  0  0  0  0
   -2.1948   -1.2543   -0.7773 H   0  0  0  0  0  0  0  0  0  0  0  0
    0.2291   -0.7340   -2.1216 H   0  0  0  0  0  0  0  0  0  0  0  0
   -1.3036    1.4777   -1.5350 H   0  0  0  0  0  0  0  0  0  0  0  0
    0.2968    2.5807    0.3388 H   0  0  0  0  0  0  0  0  0  0  0  0
   -1.9737    1.1899    0.8635 H   0  0  0  0  0  0  0  0  0  0  0  0
  1  2  1  0
  2  3  1  0
  3  4  1  0
  4  5  1  0
  5  6  1  0
  6  7  1  0
  7  8  1  0
  8  9  1  0
  8  2  1  0
  6  3  1  0
  9  7  1  0
  9  4  1  0
  1 10  1  0
  2 11  1  0
  3 12  1  0
  4 13  1  0
  5 14  1  0
  5 15  1  0
  6 16  1  0
  7 17  1  0
  8 18  1  0
  9 19  1  0
M  END
