
     RDKit          3D

 18 18  0  0  0  0  0  0  0  0999 V2000
    2.0298   -0.7407    0.8311 O   0  0  0  0  0  0  0  0  0  0  0  0
    1.1699   -0.7149   -0.2568 C   0  0  0  0  0  0  0  0  0  0  0  0
    0.8510    0.7009   -0.7073 C   0  0  0  0  0  0  0  0  0  0  0  0
   -0.6542    0.7947   -0.5800 C   0  0  0  0  0  0  0  0  0  0  0  0
   -1.1330    2.0607   -0.4815 O   0  0  0  0  0  0  0  0  0  0  0  0
   -0.8726   -0.0533    0.6597 C   0  0  0  0  0  0  0  0  0  0  0  0
   -2.1863   -0.2781    0.9495 O   0  0  0  0  0  0  0  0  0  0  0  0
   -0.1416   -1.3214    0.1963 C   0  0  0  0  0  0  0  0  0  0  0  0
    2.3420    0.1513    1.1074 H   0  0  0  0  0  0  0  0  0  0  0  0
    1.6383   -1.2855   -1.0755 H   0  0  0  0  0  0  0  0  0  0  0  0
    1.1229    0.8256   -1.7538 H   0  0  0  0  0  0  0  0  0  0  0  0
    1.3437    1.4392   -0.0235 H   0  0  0  0  0  0  0  0  0  0  0  0
   -1.1150    0.2900   -1.4347 H   0  0  0  0  0  0  0  0  0  0  0  0
   -0.8289    2.6007    0.2631 H   0  0  0  0  0  0  0  0  0  0  0  0
   -0.3111    0.3729    1.5084 H   0  0  0  0  0  0  0  0  0  0  0  0
   -2.5602   -1.0934    0.5352 H   0  0  0  0  0  0  0  0  0  0  0  0
   -0.6512   -1.6886   -0.7199 H   0  0  0  0  0  0  0  0  0  0  0  0
   -0.0436   -2.0600    0.9826 H   0  0  0  0  0  0  0  0  0  0  0  0
  1  2  1  0
  2  3  1  0
  3  4  1  0
  4  5  1  0
  4  6  1  0
  6  7  1  0
  6  8  1  0
  8  2  1  0
  1  9  1  0
  2 10  1  0
  3 11  1  0
  3 12  1  0
  4 13  1  0
  5 14  1  0
  6 15  1  0
  7 16  1  0
  8 17  1  0
  8 18  1  0
M  END
