
     RDKit          3D

 17 19  0  0  0  0  0  0  0  0999 V2000
   -1.5306    1.6500   -0.5431 O   0  0  0  0  0  0  0  0  0  0  0  0
   -0.8712    0.7865    0.2908 C   0  0  0  0  0  0  0  0  0  0  0  0
   -1.1149   -0.6905    0.0572 C   0  0  0  0  0  0  0  0  0  0  0  0
   -0.4416   -1.5921    1.0211 C   0  0  0  0  0  0  0  0  0  0  0  0
    0.4359   -0.9105    0.0680 C   0  0  0  0  0  0  0  0  0  0  0  0
    0.9465   -1.6514   -0.9970 O   0  0  0  0  0  0  0  0  0  0  0  0
    0.5612    0.5634   -0.0298 C   0  0  0  0  0  0  0  0  0  0  0  0
    1.6570    1.3450    0.2176 C   0  0  0  0  0  0  0  0  0  0  0  0
    1.1139    1.1519   -1.1373 O   0  0  0  0  0  0  0  0  0  0  0  0
   -1.9413    1.2431   -1.3263 H   0  0  0  0  0  0  0  0  0  0  0  0
   -1.1018    1.0094    1.3723 H   0  0  0  0  0  0  0  0  0  0  0  0
   -1.6251   -1.0318   -0.8389 H   0  0  0  0  0  0  0  0  0  0  0  0
   -0.6158   -2.6765    0.8507 H   0  0  0  0  0  0  0  0  0  0  0  0
   -0.4697   -1.3198    2.1097 H   0  0  0  0  0  0  0  0  0  0  0  0
    0.7192   -1.2642   -1.8808 H   0  0  0  0  0  0  0  0  0  0  0  0
    2.6843    0.9603    0.2734 H   0  0  0  0  0  0  0  0  0  0  0  0
    1.5939    2.4274    0.4925 H   0  0  0  0  0  0  0  0  0  0  0  0
  1  2  1  0
  2  3  1  0
  3  4  1  0
  4  5  1  0
  5  6  1  0
  5  7  1  0
  7  8  1  0
  8  9  1  0
  7  2  1  0
  5  3  1  0
  9  7  1  0
  1 10  1  0
  2 11  1  0
  3 12  1  0
  4 13  1  0
  4 14  1  0
  6 15  1  0
  8 16  1  0
  8 17  1  0
M  END
