
     RDKit          3D

 17 19  0  0  0  0  0  0  0  0999 V2000
    2.5045   -0.0338   -0.2036 O   0  0  0  0  0  0  0  0  0  0  0  0
    1.2412    0.1318    0.3135 C   0  0  0  0  0  0  0  0  0  0  0  0
    0.4112    1.1146   -0.5211 C   0  0  0  0  0  0  0  0  0  0  0  0
   -0.6243    1.5158    0.3481 O   0  0  0  0  0  0  0  0  0  0  0  0
   -1.5052    0.5145    0.6304 C   0  0  0  0  0  0  0  0  0  0  0  0
   -1.0411   -0.8591    0.3488 C   0  0  0  0  0  0  0  0  0  0  0  0
   -0.3952   -0.8716   -1.0358 C   0  0  0  0  0  0  0  0  0  0  0  0
   -0.1579    0.3838   -1.5253 O   0  0  0  0  0  0  0  0  0  0  0  0
    0.3777   -1.0984    0.1951 C   0  0  0  0  0  0  0  0  0  0  0  0
    2.9369    0.8527   -0.2292 H   0  0  0  0  0  0  0  0  0  0  0  0
    1.2432    0.4194    1.3866 H   0  0  0  0  0  0  0  0  0  0  0  0
    0.9931    1.9728   -0.8431 H   0  0  0  0  0  0  0  0  0  0  0  0
   -2.4308    0.6987    0.0086 H   0  0  0  0  0  0  0  0  0  0  0  0
   -1.8570    0.6402    1.6853 H   0  0  0  0  0  0  0  0  0  0  0  0
   -1.7230   -1.6687    0.6274 H   0  0  0  0  0  0  0  0  0  0  0  0
   -0.7753   -1.6601   -1.6773 H   0  0  0  0  0  0  0  0  0  0  0  0
    0.8018   -2.0527    0.4914 H   0  0  0  0  0  0  0  0  0  0  0  0
  1  2  1  0
  2  3  1  0
  3  4  1  0
  4  5  1  0
  5  6  1  0
  6  7  1  0
  7  8  1  0
  7  9  1  0
  9  2  1  0
  8  3  1  0
  9  6  1  0
  1 10  1  0
  2 11  1  0
  3 12  1  0
  5 13  1  0
  5 14  1  0
  6 15  1  0
  7 16  1  0
  9 17  1  0
M  END
