
     RDKit          3D

 19 19  0  0  0  0  0  0  0  0999 V2000
   -1.8512    1.8004    0.1246 O   0  0  0  0  0  0  0  0  0  0  0  0
   -0.8162    0.9097   -0.1451 C   0  0  0  0  0  0  0  0  0  0  0  0
    0.3477    1.1393    0.7588 C   0  0  0  0  0  0  0  0  0  0  0  0
    1.5439    0.5654    0.6027 C   0  0  0  0  0  0  0  0  0  0  0  0
    2.0150   -0.3974   -0.4464 C   0  0  0  0  0  0  0  0  0  0  0  0
    0.8862   -1.0613   -0.9634 O   0  0  0  0  0  0  0  0  0  0  0  0
    0.0199   -1.3615    0.0845 C   0  0  0  0  0  0  0  0  0  0  0  0
   -1.2501   -0.5259   -0.0144 C   0  0  0  0  0  0  0  0  0  0  0  0
   -1.9298   -0.9805   -1.1467 O   0  0  0  0  0  0  0  0  0  0  0  0
   -1.6638    2.6238   -0.4253 H   0  0  0  0  0  0  0  0  0  0  0  0
   -0.4852    1.0563   -1.1993 H   0  0  0  0  0  0  0  0  0  0  0  0
    0.2333    1.8124    1.6024 H   0  0  0  0  0  0  0  0  0  0  0  0
    2.2804    0.8463    1.3565 H   0  0  0  0  0  0  0  0  0  0  0  0
    2.4984    0.1465   -1.2738 H   0  0  0  0  0  0  0  0  0  0  0  0
    2.6419   -1.1651    0.0134 H   0  0  0  0  0  0  0  0  0  0  0  0
   -0.1997   -2.4508    0.0851 H   0  0  0  0  0  0  0  0  0  0  0  0
    0.4764   -1.0991    1.0663 H   0  0  0  0  0  0  0  0  0  0  0  0
   -1.8778   -0.7118    0.8588 H   0  0  0  0  0  0  0  0  0  0  0  0
   -2.8693   -1.1465   -0.9386 H   0  0  0  0  0  0  0  0  0  0  0  0
  1  2  1  0
  2  3  1  0
  3  4  2  0
  4  5  1  0
  5  6  1  0
  6  7  1  0
  7  8  1  0
  8  9  1  0
  8  2  1  0
  1 10  1  0
  2 11  1  0
  3 12  1  0
  4 13  1  0
  5 14  1  0
  5 15  1  0
  7 16  1  0
  7 17  1  0
  8 18  1  0
  9 19  1  0
M  END
