
     RDKit          3D

 19 20  0  0  0  0  0  0  0  0999 V2000
   -1.7565   -0.9503    1.1890 O   0  0  0  0  0  0  0  0  0  0  0  0
   -1.7019   -0.2722   -0.0207 C   0  0  0  0  0  0  0  0  0  0  0  0
   -0.5615   -0.5866   -0.9680 C   0  0  0  0  0  0  0  0  0  0  0  0
    0.3378   -1.5024   -0.4900 O   0  0  0  0  0  0  0  0  0  0  0  0
    1.5911   -0.8965   -0.4460 C   0  0  0  0  0  0  0  0  0  0  0  0
    1.5802    0.0712    0.7076 C   0  0  0  0  0  0  0  0  0  0  0  0
    0.4382    1.0387    0.6669 C   0  0  0  0  0  0  0  0  0  0  0  0
   -0.6239    0.7065   -0.3132 C   0  0  0  0  0  0  0  0  0  0  0  0
   -1.0734    1.8033   -1.0869 O   0  0  0  0  0  0  0  0  0  0  0  0
   -2.1180   -1.8662    0.9681 H   0  0  0  0  0  0  0  0  0  0  0  0
   -2.6774   -0.1962   -0.5269 H   0  0  0  0  0  0  0  0  0  0  0  0
   -0.7823   -0.6937   -2.0577 H   0  0  0  0  0  0  0  0  0  0  0  0
    2.3331   -1.6871   -0.2041 H   0  0  0  0  0  0  0  0  0  0  0  0
    1.8246   -0.4276   -1.4157 H   0  0  0  0  0  0  0  0  0  0  0  0
    2.5800    0.5830    0.7067 H   0  0  0  0  0  0  0  0  0  0  0  0
    1.5292   -0.5269    1.6378 H   0  0  0  0  0  0  0  0  0  0  0  0
   -0.0103    1.1302    1.6912 H   0  0  0  0  0  0  0  0  0  0  0  0
    0.8761    2.0520    0.4647 H   0  0  0  0  0  0  0  0  0  0  0  0
   -1.7851    2.2208   -0.5030 H   0  0  0  0  0  0  0  0  0  0  0  0
  1  2  1  0
  2  3  1  0
  3  4  1  0
  4  5  1  0
  5  6  1  0
  6  7  1  0
  7  8  1  0
  8  9  1  0
  8  2  1  0
  8  3  1  0
  1 10  1  0
  2 11  1  0
  3 12  1  0
  5 13  1  0
  5 14  1  0
  6 15  1  0
  6 16  1  0
  7 17  1  0
  7 18  1  0
  9 19  1  0
M  END
