
     RDKit          3D

 19 20  0  0  0  0  0  0  0  0999 V2000
    1.9735    0.9931    0.9625 O   0  0  0  0  0  0  0  0  0  0  0  0
    1.8097   -0.0066    0.0399 C   0  0  0  0  0  0  0  0  0  0  0  0
    1.3706   -1.2696    0.7156 C   0  0  0  0  0  0  0  0  0  0  0  0
    0.0489   -1.3653    0.6988 C   0  0  0  0  0  0  0  0  0  0  0  0
   -0.4982   -0.1998    0.0257 C   0  0  0  0  0  0  0  0  0  0  0  0
   -1.8655   -0.3158   -0.5764 C   0  0  0  0  0  0  0  0  0  0  0  0
   -1.8903    1.1242   -0.1676 C   0  0  0  0  0  0  0  0  0  0  0  0
   -1.0156    0.8026    0.8647 O   0  0  0  0  0  0  0  0  0  0  0  0
    0.5967    0.2468   -0.8769 C   0  0  0  0  0  0  0  0  0  0  0  0
    2.8129    1.5195    0.7677 H   0  0  0  0  0  0  0  0  0  0  0  0
    2.7182   -0.2071   -0.5493 H   0  0  0  0  0  0  0  0  0  0  0  0
    2.0177   -2.0171    1.1635 H   0  0  0  0  0  0  0  0  0  0  0  0
   -0.5563   -2.1768    1.1153 H   0  0  0  0  0  0  0  0  0  0  0  0
   -2.5615   -0.9127    0.0304 H   0  0  0  0  0  0  0  0  0  0  0  0
   -1.9244   -0.5380   -1.6459 H   0  0  0  0  0  0  0  0  0  0  0  0
   -1.4312    1.8377   -0.8878 H   0  0  0  0  0  0  0  0  0  0  0  0
   -2.8673    1.5330    0.1532 H   0  0  0  0  0  0  0  0  0  0  0  0
    0.5759    1.3122   -1.1471 H   0  0  0  0  0  0  0  0  0  0  0  0
    0.6864   -0.3602   -1.7755 H   0  0  0  0  0  0  0  0  0  0  0  0
  1  2  1  0
  2  3  1  0
  3  4  2  0
  4  5  1  0
  5  6  1  0
  6  7  1  0
  7  8  1  0
  5  9  1  0
  9  2  1  0
  8  5  1  0
  1 10  1  0
  2 11  1  0
  3 12  1  0
  4 13  1  0
  6 14  1  0
  6 15  1  0
  7 16  1  0
  7 17  1  0
  9 18  1  0
  9 19  1  0
M  END
