
     RDKit          3D

 19 20  0  0  0  0  0  0  0  0999 V2000
   -1.8850    0.8111    1.5859 O   0  0  0  0  0  0  0  0  0  0  0  0
   -2.1071    0.3732    0.2846 C   0  0  0  0  0  0  0  0  0  0  0  0
   -1.7856   -1.0394   -0.0389 C   0  0  0  0  0  0  0  0  0  0  0  0
   -1.0223    0.1387   -0.6784 C   0  0  0  0  0  0  0  0  0  0  0  0
    0.4096    0.1788   -0.2838 C   0  0  0  0  0  0  0  0  0  0  0  0
    0.9594    0.4103    0.8877 C   0  0  0  0  0  0  0  0  0  0  0  0
    2.4376    0.3343    0.7394 C   0  0  0  0  0  0  0  0  0  0  0  0
    2.6438    0.4221   -0.6418 O   0  0  0  0  0  0  0  0  0  0  0  0
    1.5161   -0.0642   -1.2446 C   0  0  0  0  0  0  0  0  0  0  0  0
   -2.2044    0.0677    2.1811 H   0  0  0  0  0  0  0  0  0  0  0  0
   -3.0661    0.7798   -0.1329 H   0  0  0  0  0  0  0  0  0  0  0  0
   -1.2838   -1.6230    0.7366 H   0  0  0  0  0  0  0  0  0  0  0  0
   -2.4338   -1.6224   -0.7414 H   0  0  0  0  0  0  0  0  0  0  0  0
   -1.2264    0.3519   -1.7410 H   0  0  0  0  0  0  0  0  0  0  0  0
    0.4295    0.6199    1.8023 H   0  0  0  0  0  0  0  0  0  0  0  0
    2.9373    1.2147    1.1916 H   0  0  0  0  0  0  0  0  0  0  0  0
    2.8537   -0.6216    1.0641 H   0  0  0  0  0  0  0  0  0  0  0  0
    1.2863    0.4303   -2.2218 H   0  0  0  0  0  0  0  0  0  0  0  0
    1.5413   -1.1623   -1.4253 H   0  0  0  0  0  0  0  0  0  0  0  0
  1  2  1  0
  2  3  1  0
  3  4  1  0
  4  5  1  0
  5  6  2  0
  6  7  1  0
  7  8  1  0
  8  9  1  0
  4  2  1  0
  9  5  1  0
  1 10  1  0
  2 11  1  0
  3 12  1  0
  3 13  1  0
  4 14  1  0
  6 15  1  0
  7 16  1  0
  7 17  1  0
  9 18  1  0
  9 19  1  0
M  END
