
     RDKit          3D

 19 20  0  0  0  0  0  0  0  0999 V2000
   -2.1300   -1.6513    0.0007 O   0  0  0  0  0  0  0  0  0  0  0  0
   -1.6060   -0.3701   -0.1141 C   0  0  0  0  0  0  0  0  0  0  0  0
   -1.8300    0.4370    1.1709 C   0  0  0  0  0  0  0  0  0  0  0  0
   -0.6225    0.9884    1.5218 O   0  0  0  0  0  0  0  0  0  0  0  0
    0.2310    0.9389    0.4571 C   0  0  0  0  0  0  0  0  0  0  0  0
    1.6922    0.7655    0.8386 C   0  0  0  0  0  0  0  0  0  0  0  0
    2.1703   -0.1792   -0.2140 C   0  0  0  0  0  0  0  0  0  0  0  0
    0.9451   -0.9936   -0.5641 C   0  0  0  0  0  0  0  0  0  0  0  0
   -0.1352   -0.3513   -0.1813 C   0  0  0  0  0  0  0  0  0  0  0  0
   -2.5908   -1.9181   -0.8519 H   0  0  0  0  0  0  0  0  0  0  0  0
   -2.0079    0.1807   -0.9802 H   0  0  0  0  0  0  0  0  0  0  0  0
   -2.5850    1.2133    1.0486 H   0  0  0  0  0  0  0  0  0  0  0  0
   -2.1142   -0.3145    1.9518 H   0  0  0  0  0  0  0  0  0  0  0  0
    0.1454    1.7862   -0.2426 H   0  0  0  0  0  0  0  0  0  0  0  0
    1.7158    0.2369    1.8288 H   0  0  0  0  0  0  0  0  0  0  0  0
    2.2007    1.7252    0.8656 H   0  0  0  0  0  0  0  0  0  0  0  0
    2.9414   -0.8456    0.2606 H   0  0  0  0  0  0  0  0  0  0  0  0
    2.5333    0.3068   -1.1288 H   0  0  0  0  0  0  0  0  0  0  0  0
    1.0465   -1.9551   -1.0580 H   0  0  0  0  0  0  0  0  0  0  0  0
  1  2  1  0
  2  3  1  0
  3  4  1  0
  4  5  1  0
  5  6  1  0
  6  7  1  0
  7  8  1  0
  8  9  2  0
  9  2  1  0
  9  5  1  0
  1 10  1  0
  2 11  1  0
  3 12  1  0
  3 13  1  0
  5 14  1  0
  6 15  1  0
  6 16  1  0
  7 17  1  0
  7 18  1  0
  8 19  1  0
M  END
