
     RDKit          3D

 21 22  0  0  0  0  0  0  0  0999 V2000
    2.4800   -0.6065    0.1935 O   0  0  0  0  0  0  0  0  0  0  0  0
    1.4803    0.1750   -0.3278 C   0  0  0  0  0  0  0  0  0  0  0  0
    0.9923    1.2602    0.5678 C   0  0  0  0  0  0  0  0  0  0  0  0
   -0.2584    1.1301    1.0611 O   0  0  0  0  0  0  0  0  0  0  0  0
   -1.2520    0.7698    0.2084 C   0  0  0  0  0  0  0  0  0  0  0  0
   -1.6690   -0.6570    0.6102 C   0  0  0  0  0  0  0  0  0  0  0  0
   -0.3365   -1.3630    0.3379 C   0  0  0  0  0  0  0  0  0  0  0  0
    0.2895   -0.6179   -0.8253 C   0  0  0  0  0  0  0  0  0  0  0  0
   -0.7343    0.4648   -1.2053 C   0  0  0  0  0  0  0  0  0  0  0  0
    2.2879   -1.0474    1.0349 H   0  0  0  0  0  0  0  0  0  0  0  0
    1.9088    0.6711   -1.2485 H   0  0  0  0  0  0  0  0  0  0  0  0
    1.0894    2.2791    0.1019 H   0  0  0  0  0  0  0  0  0  0  0  0
    1.7048    1.3030    1.4462 H   0  0  0  0  0  0  0  0  0  0  0  0
   -2.1340    1.4101    0.1809 H   0  0  0  0  0  0  0  0  0  0  0  0
   -1.9536   -0.7132    1.6625 H   0  0  0  0  0  0  0  0  0  0  0  0
   -2.4446   -0.9709   -0.0995 H   0  0  0  0  0  0  0  0  0  0  0  0
    0.2673   -1.1868    1.2740 H   0  0  0  0  0  0  0  0  0  0  0  0
   -0.4622   -2.4281    0.1561 H   0  0  0  0  0  0  0  0  0  0  0  0
    0.5170   -1.2702   -1.6694 H   0  0  0  0  0  0  0  0  0  0  0  0
   -1.5441    0.0551   -1.8125 H   0  0  0  0  0  0  0  0  0  0  0  0
   -0.2286    1.3425   -1.6474 H   0  0  0  0  0  0  0  0  0  0  0  0
  1  2  1  0
  2  3  1  0
  3  4  1  0
  4  5  1  0
  5  6  1  0
  6  7  1  0
  7  8  1  0
  8  9  1  0
  8  2  1  0
  9  5  1  0
  1 10  1  0
  2 11  1  0
  3 12  1  0
  3 13  1  0
  5 14  1  0
  6 15  1  0
  6 16  1  0
  7 17  1  0
  7 18  1  0
  8 19  1  0
  9 20  1  0
  9 21  1  0
M  END
