
     RDKit          3D

 20 20  0  0  0  0  0  0  0  0999 V2000
   -1.4566   -1.0572    1.0987 O   0  0  0  0  0  0  0  0  0  0  0  0
   -1.1225   -0.6682   -0.1924 C   0  0  0  0  0  0  0  0  0  0  0  0
   -1.1695    0.8174   -0.3547 C   0  0  0  0  0  0  0  0  0  0  0  0
   -0.3169    1.5676    0.6260 C   0  0  0  0  0  0  0  0  0  0  0  0
    1.0950    1.4776    0.1552 C   0  0  0  0  0  0  0  0  0  0  0  0
    1.7964    0.3753   -0.0418 C   0  0  0  0  0  0  0  0  0  0  0  0
    1.3362   -1.0451    0.1623 C   0  0  0  0  0  0  0  0  0  0  0  0
    0.1402   -1.3011   -0.6814 C   0  0  0  0  0  0  0  0  0  0  0  0
   -2.2111   -1.7050    1.1263 H   0  0  0  0  0  0  0  0  0  0  0  0
   -1.9417   -1.0735   -0.8601 H   0  0  0  0  0  0  0  0  0  0  0  0
   -0.8754    1.0798   -1.3865 H   0  0  0  0  0  0  0  0  0  0  0  0
   -2.2161    1.1452   -0.2070 H   0  0  0  0  0  0  0  0  0  0  0  0
   -0.3826    1.0853    1.6456 H   0  0  0  0  0  0  0  0  0  0  0  0
   -0.6531    2.6087    0.7293 H   0  0  0  0  0  0  0  0  0  0  0  0
    1.5545    2.4413   -0.0328 H   0  0  0  0  0  0  0  0  0  0  0  0
    2.8224    0.5212   -0.3913 H   0  0  0  0  0  0  0  0  0  0  0  0
    2.1525   -1.7001   -0.1622 H   0  0  0  0  0  0  0  0  0  0  0  0
    1.1600   -1.2299    1.2407 H   0  0  0  0  0  0  0  0  0  0  0  0
    0.3383   -0.9416   -1.7027 H   0  0  0  0  0  0  0  0  0  0  0  0
   -0.0500   -2.3978   -0.7709 H   0  0  0  0  0  0  0  0  0  0  0  0
  1  2  1  0
  2  3  1  0
  3  4  1  0
  4  5  1  0
  5  6  2  0
  6  7  1  0
  7  8  1  0
  8  2  1  0
  1  9  1  0
  2 10  1  0
  3 11  1  0
  3 12  1  0
  4 13  1  0
  4 14  1  0
  5 15  1  0
  6 16  1  0
  7 17  1  0
  7 18  1  0
  8 19  1  0
  8 20  1  0
M  END
