
     RDKit          3D

 19 21  0  0  0  0  0  0  0  0999 V2000
   -2.3547   -1.0109    0.3007 O   0  0  0  0  0  0  0  0  0  0  0  0
   -1.2217   -0.4484    0.9336 C   0  0  0  0  0  0  0  0  0  0  0  0
   -1.1412    0.9808    0.4244 C   0  0  0  0  0  0  0  0  0  0  0  0
   -0.1330    0.9859   -0.6926 C   0  0  0  0  0  0  0  0  0  0  0  0
    1.2744    1.0674   -0.0836 C   0  0  0  0  0  0  0  0  0  0  0  0
    1.2278   -0.4383    0.0361 C   0  0  0  0  0  0  0  0  0  0  0  0
    2.3401   -1.1956   -0.2335 O   0  0  0  0  0  0  0  0  0  0  0  0
   -0.0237   -1.1333    0.3126 C   0  0  0  0  0  0  0  0  0  0  0  0
    0.1316   -0.4437   -0.9655 C   0  0  0  0  0  0  0  0  0  0  0  0
   -2.1114   -1.4267   -0.5650 H   0  0  0  0  0  0  0  0  0  0  0  0
   -1.2664   -0.5250    2.0168 H   0  0  0  0  0  0  0  0  0  0  0  0
   -2.1062    1.3256    0.0129 H   0  0  0  0  0  0  0  0  0  0  0  0
   -0.8810    1.6692    1.2526 H   0  0  0  0  0  0  0  0  0  0  0  0
   -0.3141    1.6562   -1.5283 H   0  0  0  0  0  0  0  0  0  0  0  0
    2.0065    1.4714   -0.8010 H   0  0  0  0  0  0  0  0  0  0  0  0
    1.2827    1.5887    0.8806 H   0  0  0  0  0  0  0  0  0  0  0  0
    3.1133   -1.0103    0.3307 H   0  0  0  0  0  0  0  0  0  0  0  0
   -0.0177   -2.2246    0.3094 H   0  0  0  0  0  0  0  0  0  0  0  0
    0.1945   -0.8884   -1.9405 H   0  0  0  0  0  0  0  0  0  0  0  0
  1  2  1  0
  2  3  1  0
  3  4  1  0
  4  5  1  0
  5  6  1  0
  6  7  1  0
  6  8  1  0
  8  9  1  0
  8  2  1  0
  9  4  1  0
  9  6  1  0
  1 10  1  0
  2 11  1  0
  3 12  1  0
  3 13  1  0
  4 14  1  0
  5 15  1  0
  5 16  1  0
  7 17  1  0
  8 18  1  0
  9 19  1  0
M  END
