
     RDKit          3D

 18 20  0  0  0  0  0  0  0  0999 V2000
    2.3597    0.6239   -0.7067 O   0  0  0  0  0  0  0  0  0  0  0  0
    1.0265    0.3145   -0.8143 C   0  0  0  0  0  0  0  0  0  0  0  0
    0.1248    1.0358    0.2023 C   0  0  0  0  0  0  0  0  0  0  0  0
    0.6965    0.0336    1.1892 C   0  0  0  0  0  0  0  0  0  0  0  0
    0.5963   -0.9164    0.0015 C   0  0  0  0  0  0  0  0  0  0  0  0
   -0.8479   -1.0037   -0.3376 C   0  0  0  0  0  0  0  0  0  0  0  0
   -1.9259   -0.5169    0.5229 C   0  0  0  0  0  0  0  0  0  0  0  0
   -1.2152    0.5221   -0.2248 C   0  0  0  0  0  0  0  0  0  0  0  0
    2.7739    0.8856   -1.5809 H   0  0  0  0  0  0  0  0  0  0  0  0
    0.5916    0.3791   -1.8089 H   0  0  0  0  0  0  0  0  0  0  0  0
    0.2927    2.0685    0.3571 H   0  0  0  0  0  0  0  0  0  0  0  0
    1.7224    0.2868    1.4531 H   0  0  0  0  0  0  0  0  0  0  0  0
    0.0973   -0.2057    2.0547 H   0  0  0  0  0  0  0  0  0  0  0  0
    1.2325   -1.7646   -0.0246 H   0  0  0  0  0  0  0  0  0  0  0  0
   -1.0918   -1.4794   -1.2989 H   0  0  0  0  0  0  0  0  0  0  0  0
   -2.9619   -0.7433    0.1647 H   0  0  0  0  0  0  0  0  0  0  0  0
   -1.8754   -0.4743    1.6233 H   0  0  0  0  0  0  0  0  0  0  0  0
   -1.5962    0.9546   -1.1712 H   0  0  0  0  0  0  0  0  0  0  0  0
  1  2  1  0
  2  3  1  0
  3  4  1  0
  4  5  1  0
  5  6  1  0
  6  7  1  0
  7  8  1  0
  5  2  1  0
  8  6  1  0
  8  3  1  0
  1  9  1  0
  2 10  1  0
  3 11  1  0
  4 12  1  0
  4 13  1  0
  5 14  1  0
  6 15  1  0
  7 16  1  0
  7 17  1  0
  8 18  1  0
M  END
