
     RDKit          3D

 16 17  0  0  0  0  0  0  0  0999 V2000
    1.3873    1.5967   -0.4410 O   0  0  0  0  0  0  0  0  0  0  0  0
    0.8721    0.3247   -0.6304 C   0  0  0  0  0  0  0  0  0  0  0  0
    1.5313   -0.7431    0.2497 C   0  0  0  0  0  0  0  0  0  0  0  0
    0.4755   -0.6532    1.1827 O   0  0  0  0  0  0  0  0  0  0  0  0
   -0.2799   -0.0836    0.1963 C   0  0  0  0  0  0  0  0  0  0  0  0
   -1.3423   -0.9252   -0.4391 C   0  0  0  0  0  0  0  0  0  0  0  0
   -2.2539    0.1135   -0.1523 O   0  0  0  0  0  0  0  0  0  0  0  0
   -1.3157    0.8990    0.5564 C   0  0  0  0  0  0  0  0  0  0  0  0
    1.8802    1.6907    0.4030 H   0  0  0  0  0  0  0  0  0  0  0  0
    0.8236   -0.0008   -1.6886 H   0  0  0  0  0  0  0  0  0  0  0  0
    1.5412   -1.7385   -0.2508 H   0  0  0  0  0  0  0  0  0  0  0  0
    2.4668   -0.4210    0.7171 H   0  0  0  0  0  0  0  0  0  0  0  0
   -1.5889   -1.8800    0.0923 H   0  0  0  0  0  0  0  0  0  0  0  0
   -1.2780   -1.0155   -1.5452 H   0  0  0  0  0  0  0  0  0  0  0  0
   -1.6479    0.9279    1.6281 H   0  0  0  0  0  0  0  0  0  0  0  0
   -1.2715    1.9084    0.1217 H   0  0  0  0  0  0  0  0  0  0  0  0
  1  2  1  0
  2  3  1  0
  3  4  1  0
  4  5  1  0
  5  6  1  0
  6  7  1  0
  7  8  1  0
  5  2  1  0
  8  5  1  0
  1  9  1  0
  2 10  1  0
  3 11  1  0
  3 12  1  0
  6 13  1  0
  6 14  1  0
  8 15  1  0
  8 16  1  0
M  END
