
     RDKit          3D

 19 21  0  0  0  0  0  0  0  0999 V2000
   -3.0149   -0.3683    0.5776 O   0  0  0  0  0  0  0  0  0  0  0  0
   -1.7830   -0.6497   -0.0653 C   0  0  0  0  0  0  0  0  0  0  0  0
   -1.1236    0.4348   -0.6463 C   0  0  0  0  0  0  0  0  0  0  0  0
   -0.5546    1.6873   -0.2555 C   0  0  0  0  0  0  0  0  0  0  0  0
    0.6548    1.4569    0.2445 C   0  0  0  0  0  0  0  0  0  0  0  0
    0.8348   -0.0568    0.1576 C   0  0  0  0  0  0  0  0  0  0  0  0
    1.5982   -0.6533   -0.9199 C   0  0  0  0  0  0  0  0  0  0  0  0
    2.0440   -0.7254    0.5738 C   0  0  0  0  0  0  0  0  0  0  0  0
   -0.5590   -0.3902    0.5592 C   0  0  0  0  0  0  0  0  0  0  0  0
   -3.7441   -0.5388   -0.0428 H   0  0  0  0  0  0  0  0  0  0  0  0
   -1.9021   -1.6249   -0.6074 H   0  0  0  0  0  0  0  0  0  0  0  0
   -0.6789    0.1693   -1.6712 H   0  0  0  0  0  0  0  0  0  0  0  0
   -0.9871    2.6672   -0.3318 H   0  0  0  0  0  0  0  0  0  0  0  0
    1.3932    2.1480    0.6405 H   0  0  0  0  0  0  0  0  0  0  0  0
    2.2824   -0.0570   -1.5570 H   0  0  0  0  0  0  0  0  0  0  0  0
    1.2841   -1.6125   -1.3792 H   0  0  0  0  0  0  0  0  0  0  0  0
    1.9629   -1.7411    1.0091 H   0  0  0  0  0  0  0  0  0  0  0  0
    2.9895   -0.2240    0.8301 H   0  0  0  0  0  0  0  0  0  0  0  0
   -0.6963    0.0786    1.5900 H   0  0  0  0  0  0  0  0  0  0  0  0
  1  2  1  0
  2  3  1  0
  3  4  1  0
  4  5  2  0
  5  6  1  0
  6  7  1  0
  7  8  1  0
  6  9  1  0
  9  2  1  0
  9  3  1  0
  8  6  1  0
  1 10  1  0
  2 11  1  0
  3 12  1  0
  4 13  1  0
  5 14  1  0
  7 15  1  0
  7 16  1  0
  8 17  1  0
  8 18  1  0
  9 19  1  0
M  END
