
     RDKit          3D

 18 19  0  0  0  0  0  0  0  0999 V2000
    1.7274   -0.8434    0.8913 O   0  0  0  0  0  0  0  0  0  0  0  0
    1.1916   -0.4199   -0.3203 C   0  0  0  0  0  0  0  0  0  0  0  0
    1.1174    1.1092   -0.3811 C   0  0  0  0  0  0  0  0  0  0  0  0
    0.1941    1.4639    0.6297 O   0  0  0  0  0  0  0  0  0  0  0  0
   -1.0569    1.2158    0.1188 C   0  0  0  0  0  0  0  0  0  0  0  0
   -1.3109   -0.2114   -0.2249 C   0  0  0  0  0  0  0  0  0  0  0  0
   -0.9558   -1.3089    0.7569 C   0  0  0  0  0  0  0  0  0  0  0  0
   -0.1522   -1.0564   -0.4593 C   0  0  0  0  0  0  0  0  0  0  0  0
    2.2512   -0.1429    1.3105 H   0  0  0  0  0  0  0  0  0  0  0  0
    1.9113   -0.7070   -1.1196 H   0  0  0  0  0  0  0  0  0  0  0  0
    0.7101    1.3579   -1.3885 H   0  0  0  0  0  0  0  0  0  0  0  0
    2.1153    1.5068   -0.1941 H   0  0  0  0  0  0  0  0  0  0  0  0
   -1.8740    1.6145    0.7557 H   0  0  0  0  0  0  0  0  0  0  0  0
   -1.1308    1.8031   -0.8445 H   0  0  0  0  0  0  0  0  0  0  0  0
   -2.2679   -0.3953   -0.7501 H   0  0  0  0  0  0  0  0  0  0  0  0
   -0.6877   -0.9450    1.7488 H   0  0  0  0  0  0  0  0  0  0  0  0
   -1.5637   -2.2440    0.7568 H   0  0  0  0  0  0  0  0  0  0  0  0
   -0.2184   -1.7970   -1.2863 H   0  0  0  0  0  0  0  0  0  0  0  0
  1  2  1  0
  2  3  1  0
  3  4  1  0
  4  5  1  0
  5  6  1  0
  6  7  1  0
  7  8  1  0
  8  2  1  0
  8  6  1  0
  1  9  1  0
  2 10  1  0
  3 11  1  0
  3 12  1  0
  5 13  1  0
  5 14  1  0
  6 15  1  0
  7 16  1  0
  7 17  1  0
  8 18  1  0
M  END
