
     RDKit          3D

 17 18  0  0  0  0  0  0  0  0999 V2000
    2.7608   -0.1755   -0.1967 O   0  0  0  0  0  0  0  0  0  0  0  0
    1.4160   -0.0283   -0.4082 C   0  0  0  0  0  0  0  0  0  0  0  0
    0.7945    0.9812    0.5396 C   0  0  0  0  0  0  0  0  0  0  0  0
   -0.4661    1.2774    0.6972 C   0  0  0  0  0  0  0  0  0  0  0  0
   -1.6720    0.7958    0.0750 C   0  0  0  0  0  0  0  0  0  0  0  0
   -2.4712   -0.1826    0.6630 O   0  0  0  0  0  0  0  0  0  0  0  0
   -1.7209   -0.5939   -0.4270 C   0  0  0  0  0  0  0  0  0  0  0  0
   -0.5950   -1.4792   -0.0948 C   0  0  0  0  0  0  0  0  0  0  0  0
    0.7030   -1.2858   -0.0755 C   0  0  0  0  0  0  0  0  0  0  0  0
    3.2639    0.6167   -0.5035 H   0  0  0  0  0  0  0  0  0  0  0  0
    1.1421    0.3052   -1.4216 H   0  0  0  0  0  0  0  0  0  0  0  0
    1.5479    1.4811    1.1277 H   0  0  0  0  0  0  0  0  0  0  0  0
   -0.6250    2.0558    1.4659 H   0  0  0  0  0  0  0  0  0  0  0  0
   -2.2964    1.5835   -0.4348 H   0  0  0  0  0  0  0  0  0  0  0  0
   -2.2336   -0.7277   -1.4121 H   0  0  0  0  0  0  0  0  0  0  0  0
   -0.8606   -2.5168    0.2004 H   0  0  0  0  0  0  0  0  0  0  0  0
    1.3126   -2.1070    0.2054 H   0  0  0  0  0  0  0  0  0  0  0  0
  1  2  1  0
  2  3  1  0
  3  4  2  0
  4  5  1  0
  5  6  1  0
  6  7  1  0
  7  8  1  0
  8  9  2  0
  9  2  1  0
  7  5  1  0
  1 10  1  0
  2 11  1  0
  3 12  1  0
  4 13  1  0
  5 14  1  0
  7 15  1  0
  8 16  1  0
  9 17  1  0
M  END
