
     RDKit          3D

 19 20  0  0  0  0  0  0  0  0999 V2000
   -1.3875   -1.2188    0.7133 O   0  0  0  0  0  0  0  0  0  0  0  0
   -1.3184   -0.2402   -0.2643 C   0  0  0  0  0  0  0  0  0  0  0  0
   -0.1884   -0.5948   -1.2402 C   0  0  0  0  0  0  0  0  0  0  0  0
    0.9999   -0.5354   -0.3285 C   0  0  0  0  0  0  0  0  0  0  0  0
    1.5293   -1.7845   -0.0058 O   0  0  0  0  0  0  0  0  0  0  0  0
    1.7869    0.6720   -0.1044 C   0  0  0  0  0  0  0  0  0  0  0  0
    0.6576    0.4250    0.7923 C   0  0  0  0  0  0  0  0  0  0  0  0
   -0.6876    1.0139    0.3564 C   0  0  0  0  0  0  0  0  0  0  0  0
   -1.4152    1.5044    1.4038 O   0  0  0  0  0  0  0  0  0  0  0  0
   -1.6902   -2.0745    0.3503 H   0  0  0  0  0  0  0  0  0  0  0  0
   -2.2567   -0.0325   -0.7662 H   0  0  0  0  0  0  0  0  0  0  0  0
   -0.3359   -1.5671   -1.7081 H   0  0  0  0  0  0  0  0  0  0  0  0
   -0.1419    0.1862   -2.0343 H   0  0  0  0  0  0  0  0  0  0  0  0
    1.7279   -1.7772    0.9457 H   0  0  0  0  0  0  0  0  0  0  0  0
    2.8313    0.5140    0.2753 H   0  0  0  0  0  0  0  0  0  0  0  0
    1.7458    1.5587   -0.7841 H   0  0  0  0  0  0  0  0  0  0  0  0
    0.7576    0.0711    1.8331 H   0  0  0  0  0  0  0  0  0  0  0  0
   -0.5303    1.7364   -0.4762 H   0  0  0  0  0  0  0  0  0  0  0  0
   -2.0842    2.1432    1.0417 H   0  0  0  0  0  0  0  0  0  0  0  0
  1  2  1  0
  2  3  1  0
  3  4  1  0
  4  5  1  0
  4  6  1  0
  6  7  1  0
  7  8  1  0
  8  9  1  0
  8  2  1  0
  7  4  1  0
  1 10  1  0
  2 11  1  0
  3 12  1  0
  3 13  1  0
  5 14  1  0
  6 15  1  0
  6 16  1  0
  7 17  1  0
  8 18  1  0
  9 19  1  0
M  END
