
     RDKit          3D

 13 15  0  0  0  0  0  0  0  0999 V2000
    2.2952    0.0361   -0.8128 O   0  0  0  0  0  0  0  0  0  0  0  0
    1.1452   -0.4290   -0.1837 C   0  0  0  0  0  0  0  0  0  0  0  0
    0.2057    0.6753    0.2102 C   0  0  0  0  0  0  0  0  0  0  0  0
   -0.9622    0.2537    1.0352 C   0  0  0  0  0  0  0  0  0  0  0  0
   -1.1885   -1.0801    1.2185 O   0  0  0  0  0  0  0  0  0  0  0  0
   -1.3895   -0.6563   -0.0693 C   0  0  0  0  0  0  0  0  0  0  0  0
   -0.1639   -0.3105   -0.8424 C   0  0  0  0  0  0  0  0  0  0  0  0
    2.7125    0.6798   -0.1545 H   0  0  0  0  0  0  0  0  0  0  0  0
    1.2657   -1.2538    0.5602 H   0  0  0  0  0  0  0  0  0  0  0  0
    0.3642    1.7059   -0.0888 H   0  0  0  0  0  0  0  0  0  0  0  0
   -1.6276    0.9581    1.5161 H   0  0  0  0  0  0  0  0  0  0  0  0
   -2.3942   -0.5272   -0.4950 H   0  0  0  0  0  0  0  0  0  0  0  0
   -0.2624   -0.0520   -1.8937 H   0  0  0  0  0  0  0  0  0  0  0  0
  1  2  1  0
  2  3  1  0
  3  4  1  0
  4  5  1  0
  5  6  1  0
  6  7  1  0
  7  2  1  0
  7  3  1  0
  6  4  1  0
  1  8  1  0
  2  9  1  0
  3 10  1  0
  4 11  1  0
  6 12  1  0
  7 13  1  0
M  END
