
     RDKit          3D

 19 21  0  0  0  0  0  0  0  0999 V2000
   -2.9598   -0.1322   -0.1126 O   0  0  0  0  0  0  0  0  0  0  0  0
   -1.6905   -0.5422    0.1922 C   0  0  0  0  0  0  0  0  0  0  0  0
   -0.6988   -0.5168   -0.9791 C   0  0  0  0  0  0  0  0  0  0  0  0
    0.2709    0.1104   -0.0205 C   0  0  0  0  0  0  0  0  0  0  0  0
   -0.8706    0.6229    0.7688 C   0  0  0  0  0  0  0  0  0  0  0  0
    1.2677   -0.7579    0.6273 C   0  0  0  0  0  0  0  0  0  0  0  0
    2.3560    0.1911    0.1056 C   0  0  0  0  0  0  0  0  0  0  0  0
    2.3350    0.5056   -1.2345 O   0  0  0  0  0  0  0  0  0  0  0  0
    1.2673    1.0513   -0.5547 C   0  0  0  0  0  0  0  0  0  0  0  0
   -3.1591   -0.3059   -1.0479 H   0  0  0  0  0  0  0  0  0  0  0  0
   -1.5659   -1.4791    0.7495 H   0  0  0  0  0  0  0  0  0  0  0  0
   -0.4049   -1.4945   -1.3567 H   0  0  0  0  0  0  0  0  0  0  0  0
   -1.0156    0.2118   -1.7672 H   0  0  0  0  0  0  0  0  0  0  0  0
   -0.7992    0.6353    1.8544 H   0  0  0  0  0  0  0  0  0  0  0  0
   -1.2403    1.5942    0.3384 H   0  0  0  0  0  0  0  0  0  0  0  0
    1.3925   -1.7836    0.2016 H   0  0  0  0  0  0  0  0  0  0  0  0
    1.3153   -0.7805    1.7258 H   0  0  0  0  0  0  0  0  0  0  0  0
    2.9606    0.7438    0.8268 H   0  0  0  0  0  0  0  0  0  0  0  0
    1.2393    2.1264   -0.3174 H   0  0  0  0  0  0  0  0  0  0  0  0
  1  2  1  0
  2  3  1  0
  3  4  1  0
  4  5  1  0
  4  6  1  0
  6  7  1  0
  7  8  1  0
  8  9  1  0
  5  2  1  0
  9  7  1  0
  9  4  1  0
  1 10  1  0
  2 11  1  0
  3 12  1  0
  3 13  1  0
  5 14  1  0
  5 15  1  0
  6 16  1  0
  6 17  1  0
  7 18  1  0
  9 19  1  0
M  END
