
     RDKit          3D

 17 18  0  0  0  0  0  0  0  0999 V2000
   -2.1704   -1.1099   -0.0051 O   0  0  0  0  0  0  0  0  0  0  0  0
   -1.2101   -0.4539    0.8028 C   0  0  0  0  0  0  0  0  0  0  0  0
   -1.2184    1.0041    0.5516 C   0  0  0  0  0  0  0  0  0  0  0  0
   -0.4143    1.2763   -0.4533 C   0  0  0  0  0  0  0  0  0  0  0  0
    0.2192    0.0326   -0.9838 C   0  0  0  0  0  0  0  0  0  0  0  0
    1.5793    0.1544   -1.1381 O   0  0  0  0  0  0  0  0  0  0  0  0
    2.1849   -0.0592    0.0694 C   0  0  0  0  0  0  0  0  0  0  0  0
    1.1942   -0.3667    1.0030 O   0  0  0  0  0  0  0  0  0  0  0  0
    0.1350   -0.8677    0.2567 C   0  0  0  0  0  0  0  0  0  0  0  0
   -2.4576   -0.5249   -0.7585 H   0  0  0  0  0  0  0  0  0  0  0  0
   -1.3667   -0.7290    1.8503 H   0  0  0  0  0  0  0  0  0  0  0  0
   -1.7902    1.7457    1.0988 H   0  0  0  0  0  0  0  0  0  0  0  0
   -0.2020    2.2541   -0.8808 H   0  0  0  0  0  0  0  0  0  0  0  0
   -0.3124   -0.3943   -1.8393 H   0  0  0  0  0  0  0  0  0  0  0  0
    2.7027    0.8605    0.4670 H   0  0  0  0  0  0  0  0  0  0  0  0
    2.9085   -0.9015   -0.0526 H   0  0  0  0  0  0  0  0  0  0  0  0
    0.2184   -1.9208    0.0119 H   0  0  0  0  0  0  0  0  0  0  0  0
  1  2  1  0
  2  3  1  0
  3  4  2  0
  4  5  1  0
  5  6  1  0
  6  7  1  0
  7  8  1  0
  8  9  1  0
  9  2  1  0
  9  5  1  0
  1 10  1  0
  2 11  1  0
  3 12  1  0
  4 13  1  0
  5 14  1  0
  7 15  1  0
  7 16  1  0
  9 17  1  0
M  END
