
     RDKit          3D

 19 20  0  0  0  0  0  0  0  0999 V2000
    1.6693    0.2035    1.8133 O   0  0  0  0  0  0  0  0  0  0  0  0
    1.4516    0.1925    0.4357 C   0  0  0  0  0  0  0  0  0  0  0  0
    1.3333   -1.0994   -0.2896 C   0  0  0  0  0  0  0  0  0  0  0  0
    1.9454   -1.1847   -1.5184 O   0  0  0  0  0  0  0  0  0  0  0  0
    0.1409   -0.3083   -0.0287 C   0  0  0  0  0  0  0  0  0  0  0  0
   -0.9233   -0.7170    0.9293 C   0  0  0  0  0  0  0  0  0  0  0  0
   -1.9464    0.1084    0.8058 C   0  0  0  0  0  0  0  0  0  0  0  0
   -1.6603    1.1288   -0.2313 C   0  0  0  0  0  0  0  0  0  0  0  0
   -0.5876    0.4910   -1.0813 C   0  0  0  0  0  0  0  0  0  0  0  0
    1.9970    1.0874    2.0921 H   0  0  0  0  0  0  0  0  0  0  0  0
    1.9293    1.0449   -0.1192 H   0  0  0  0  0  0  0  0  0  0  0  0
    1.4580   -2.0240    0.3444 H   0  0  0  0  0  0  0  0  0  0  0  0
    1.6669   -1.9676   -2.0472 H   0  0  0  0  0  0  0  0  0  0  0  0
   -0.8319   -1.5684    1.6068 H   0  0  0  0  0  0  0  0  0  0  0  0
   -2.8877    0.0536    1.3896 H   0  0  0  0  0  0  0  0  0  0  0  0
   -1.2751    2.0884    0.2220 H   0  0  0  0  0  0  0  0  0  0  0  0
   -2.5510    1.3437   -0.8547 H   0  0  0  0  0  0  0  0  0  0  0  0
    0.1227    1.2555   -1.4946 H   0  0  0  0  0  0  0  0  0  0  0  0
   -1.0513   -0.1281   -1.8585 H   0  0  0  0  0  0  0  0  0  0  0  0
  1  2  1  0
  2  3  1  0
  3  4  1  0
  3  5  1  0
  5  6  1  0
  6  7  2  0
  7  8  1  0
  8  9  1  0
  5  2  1  0
  9  5  1  0
  1 10  1  0
  2 11  1  0
  3 12  1  0
  4 13  1  0
  6 14  1  0
  7 15  1  0
  8 16  1  0
  8 17  1  0
  9 18  1  0
  9 19  1  0
M  END
