
     RDKit          3D

 19 20  0  0  0  0  0  0  0  0999 V2000
   -2.1321    0.9865    0.5790 O   0  0  0  0  0  0  0  0  0  0  0  0
   -1.5172    0.0453   -0.2451 C   0  0  0  0  0  0  0  0  0  0  0  0
   -1.1064   -1.1240    0.6190 C   0  0  0  0  0  0  0  0  0  0  0  0
   -0.0904   -0.7899    1.4681 O   0  0  0  0  0  0  0  0  0  0  0  0
    1.0496   -0.3236    0.8803 C   0  0  0  0  0  0  0  0  0  0  0  0
    1.5549   -0.8716   -0.3989 C   0  0  0  0  0  0  0  0  0  0  0  0
    0.9493    0.5273   -0.2736 C   0  0  0  0  0  0  0  0  0  0  0  0
    1.8425    1.6190   -0.3645 O   0  0  0  0  0  0  0  0  0  0  0  0
   -0.3627    0.6630   -0.9551 C   0  0  0  0  0  0  0  0  0  0  0  0
   -1.5204    1.7136    0.8484 H   0  0  0  0  0  0  0  0  0  0  0  0
   -2.2519   -0.3103   -1.0039 H   0  0  0  0  0  0  0  0  0  0  0  0
   -0.9192   -2.0466    0.0481 H   0  0  0  0  0  0  0  0  0  0  0  0
   -2.0075   -1.3537    1.2624 H   0  0  0  0  0  0  0  0  0  0  0  0
    1.8562   -0.0873    1.6281 H   0  0  0  0  0  0  0  0  0  0  0  0
    0.9610   -1.6745   -0.8481 H   0  0  0  0  0  0  0  0  0  0  0  0
    2.6118   -0.8706   -0.6690 H   0  0  0  0  0  0  0  0  0  0  0  0
    1.9412    2.0095    0.5620 H   0  0  0  0  0  0  0  0  0  0  0  0
   -0.5911    1.7216   -1.1712 H   0  0  0  0  0  0  0  0  0  0  0  0
   -0.2677    0.1666   -1.9663 H   0  0  0  0  0  0  0  0  0  0  0  0
  1  2  1  0
  2  3  1  0
  3  4  1  0
  4  5  1  0
  5  6  1  0
  6  7  1  0
  7  8  1  0
  7  9  1  0
  9  2  1  0
  7  5  1  0
  1 10  1  0
  2 11  1  0
  3 12  1  0
  3 13  1  0
  5 14  1  0
  6 15  1  0
  6 16  1  0
  8 17  1  0
  9 18  1  0
  9 19  1  0
M  END
