
     RDKit          3D

 19 20  0  0  0  0  0  0  0  0999 V2000
    1.1623    0.2274    1.6773 O   0  0  0  0  0  0  0  0  0  0  0  0
    1.0526    0.4601    0.3206 C   0  0  0  0  0  0  0  0  0  0  0  0
    1.9666   -0.3205   -0.5729 C   0  0  0  0  0  0  0  0  0  0  0  0
    0.9010   -1.1049   -1.0689 O   0  0  0  0  0  0  0  0  0  0  0  0
    0.0281   -0.4041   -0.3236 C   0  0  0  0  0  0  0  0  0  0  0  0
   -0.9771    0.4763   -1.0696 C   0  0  0  0  0  0  0  0  0  0  0  0
   -1.8087    0.8618    0.1658 C   0  0  0  0  0  0  0  0  0  0  0  0
   -2.0463   -0.3727    0.7270 O   0  0  0  0  0  0  0  0  0  0  0  0
   -0.9075   -1.1427    0.5878 C   0  0  0  0  0  0  0  0  0  0  0  0
    2.1029   -0.0940    1.8289 H   0  0  0  0  0  0  0  0  0  0  0  0
    1.0487    1.5339    0.0276 H   0  0  0  0  0  0  0  0  0  0  0  0
    2.7016   -0.8871    0.0198 H   0  0  0  0  0  0  0  0  0  0  0  0
    2.4331    0.2672   -1.3855 H   0  0  0  0  0  0  0  0  0  0  0  0
   -0.5174    1.3434   -1.5357 H   0  0  0  0  0  0  0  0  0  0  0  0
   -1.6343   -0.1220   -1.7241 H   0  0  0  0  0  0  0  0  0  0  0  0
   -2.7137    1.3953   -0.0966 H   0  0  0  0  0  0  0  0  0  0  0  0
   -1.1124    1.4091    0.8341 H   0  0  0  0  0  0  0  0  0  0  0  0
   -0.4466   -1.4428    1.5337 H   0  0  0  0  0  0  0  0  0  0  0  0
   -1.2329   -2.0838    0.0542 H   0  0  0  0  0  0  0  0  0  0  0  0
  1  2  1  0
  2  3  1  0
  3  4  1  0
  4  5  1  0
  5  6  1  0
  6  7  1  0
  7  8  1  0
  8  9  1  0
  5  2  1  0
  9  5  1  0
  1 10  1  0
  2 11  1  0
  3 12  1  0
  3 13  1  0
  6 14  1  0
  6 15  1  0
  7 16  1  0
  7 17  1  0
  9 18  1  0
  9 19  1  0
M  END
