
     RDKit          3D

 19 20  0  0  0  0  0  0  0  0999 V2000
    2.6566   -0.8187   -0.1949 O   0  0  0  0  0  0  0  0  0  0  0  0
    1.4882   -0.3470   -0.7673 C   0  0  0  0  0  0  0  0  0  0  0  0
    0.3723   -1.3521   -0.6644 C   0  0  0  0  0  0  0  0  0  0  0  0
   -0.7642   -0.7829   -0.3166 C   0  0  0  0  0  0  0  0  0  0  0  0
   -2.1528   -0.4077    0.0604 C   0  0  0  0  0  0  0  0  0  0  0  0
   -1.4407    0.6277    0.9705 C   0  0  0  0  0  0  0  0  0  0  0  0
   -0.5131    0.7243   -0.2119 C   0  0  0  0  0  0  0  0  0  0  0  0
    0.9608    0.8192    0.0668 C   0  0  0  0  0  0  0  0  0  0  0  0
    1.1471    0.6507    1.4177 O   0  0  0  0  0  0  0  0  0  0  0  0
    2.5793   -1.8144   -0.0966 H   0  0  0  0  0  0  0  0  0  0  0  0
    1.5806   -0.0001   -1.8006 H   0  0  0  0  0  0  0  0  0  0  0  0
    0.5030   -2.4092   -0.8557 H   0  0  0  0  0  0  0  0  0  0  0  0
   -2.6366    0.1426   -0.7587 H   0  0  0  0  0  0  0  0  0  0  0  0
   -2.7353   -1.1429    0.6025 H   0  0  0  0  0  0  0  0  0  0  0  0
   -2.0458    1.5098    1.1867 H   0  0  0  0  0  0  0  0  0  0  0  0
   -0.9775    0.0961    1.7971 H   0  0  0  0  0  0  0  0  0  0  0  0
   -0.8893    1.2473   -1.0955 H   0  0  0  0  0  0  0  0  0  0  0  0
    1.3429    1.7902   -0.2394 H   0  0  0  0  0  0  0  0  0  0  0  0
    1.5244    1.4671    1.8738 H   0  0  0  0  0  0  0  0  0  0  0  0
  1  2  1  0
  2  3  1  0
  3  4  2  0
  4  5  1  0
  5  6  1  0
  6  7  1  0
  7  8  1  0
  8  9  1  0
  8  2  1  0
  7  4  1  0
  1 10  1  0
  2 11  1  0
  3 12  1  0
  5 13  1  0
  5 14  1  0
  6 15  1  0
  6 16  1  0
  7 17  1  0
  8 18  1  0
  9 19  1  0
M  END
