
     RDKit          3D

 15 16  0  0  0  0  0  0  0  0999 V2000
    2.0273   -0.1809   -0.8231 O   0  0  0  0  0  0  0  0  0  0  0  0
    1.0111    0.4625   -0.1533 C   0  0  0  0  0  0  0  0  0  0  0  0
    0.4958   -0.2605    1.0747 C   0  0  0  0  0  0  0  0  0  0  0  0
   -0.8637   -0.1614    0.4645 C   0  0  0  0  0  0  0  0  0  0  0  0
   -1.8851    0.5308    1.0260 O   0  0  0  0  0  0  0  0  0  0  0  0
   -1.0328   -0.9930   -0.7733 C   0  0  0  0  0  0  0  0  0  0  0  0
   -0.3163    0.3087   -0.8393 C   0  0  0  0  0  0  0  0  0  0  0  0
    2.9189    0.1221   -0.5085 H   0  0  0  0  0  0  0  0  0  0  0  0
    1.2935    1.5217    0.0319 H   0  0  0  0  0  0  0  0  0  0  0  0
    0.8790   -1.3172    1.0530 H   0  0  0  0  0  0  0  0  0  0  0  0
    0.5723    0.2631    2.0206 H   0  0  0  0  0  0  0  0  0  0  0  0
   -1.9441    1.4899    0.7914 H   0  0  0  0  0  0  0  0  0  0  0  0
   -2.0630   -1.0801   -1.1002 H   0  0  0  0  0  0  0  0  0  0  0  0
   -0.3774   -1.8850   -0.9024 H   0  0  0  0  0  0  0  0  0  0  0  0
   -0.7153    1.1792   -1.3620 H   0  0  0  0  0  0  0  0  0  0  0  0
  1  2  1  0
  2  3  1  0
  3  4  1  0
  4  5  1  0
  4  6  1  0
  6  7  1  0
  7  2  1  0
  7  4  1  0
  1  8  1  0
  2  9  1  0
  3 10  1  0
  3 11  1  0
  5 12  1  0
  6 13  1  0
  6 14  1  0
  7 15  1  0
M  END
