
     RDKit          3D

 21 23  0  0  0  0  0  0  0  0999 V2000
    0.4764    1.7281   -1.4196 O   0  0  0  0  0  0  0  0  0  0  0  0
   -0.1520    1.0047   -0.4156 C   0  0  0  0  0  0  0  0  0  0  0  0
   -1.4160    0.3230   -0.8915 C   0  0  0  0  0  0  0  0  0  0  0  0
   -2.2423   -0.2655    0.2414 C   0  0  0  0  0  0  0  0  0  0  0  0
   -1.3297   -1.1106   -0.5622 C   0  0  0  0  0  0  0  0  0  0  0  0
    0.0831   -1.3869   -0.1083 C   0  0  0  0  0  0  0  0  0  0  0  0
    0.7071   -0.0624    0.1852 C   0  0  0  0  0  0  0  0  0  0  0  0
    1.3728    0.2541    1.4549 C   0  0  0  0  0  0  0  0  0  0  0  0
    2.1728    0.0019    0.2074 C   0  0  0  0  0  0  0  0  0  0  0  0
    0.7630    2.6058   -1.0885 H   0  0  0  0  0  0  0  0  0  0  0  0
   -0.4605    1.7226    0.3890 H   0  0  0  0  0  0  0  0  0  0  0  0
   -1.9359    0.7000   -1.7816 H   0  0  0  0  0  0  0  0  0  0  0  0
   -3.3194   -0.4400    0.0876 H   0  0  0  0  0  0  0  0  0  0  0  0
   -1.9807   -0.0220    1.2820 H   0  0  0  0  0  0  0  0  0  0  0  0
   -1.7864   -1.8087   -1.3194 H   0  0  0  0  0  0  0  0  0  0  0  0
    0.6136   -1.8325   -0.9931 H   0  0  0  0  0  0  0  0  0  0  0  0
    0.1538   -2.1229    0.6956 H   0  0  0  0  0  0  0  0  0  0  0  0
    1.4207   -0.4557    2.2914 H   0  0  0  0  0  0  0  0  0  0  0  0
    1.3827    1.3220    1.7846 H   0  0  0  0  0  0  0  0  0  0  0  0
    2.7424    0.8071   -0.2740 H   0  0  0  0  0  0  0  0  0  0  0  0
    2.7344   -0.9620    0.2345 H   0  0  0  0  0  0  0  0  0  0  0  0
  1  2  1  0
  2  3  1  0
  3  4  1  0
  4  5  1  0
  5  6  1  0
  6  7  1  0
  7  8  1  0
  8  9  1  0
  7  2  1  0
  5  3  1  0
  9  7  1  0
  1 10  1  0
  2 11  1  0
  3 12  1  0
  4 13  1  0
  4 14  1  0
  5 15  1  0
  6 16  1  0
  6 17  1  0
  8 18  1  0
  8 19  1  0
  9 20  1  0
  9 21  1  0
M  END
