
     RDKit          3D

 19 21  0  0  0  0  0  0  0  0999 V2000
    1.2322    0.3030    1.5946 O   0  0  0  0  0  0  0  0  0  0  0  0
    1.6484    0.0727    0.3122 C   0  0  0  0  0  0  0  0  0  0  0  0
    0.8445    0.4670   -0.8711 C   0  0  0  0  0  0  0  0  0  0  0  0
   -0.3778    1.2858   -0.7617 C   0  0  0  0  0  0  0  0  0  0  0  0
   -1.4387    0.7980    0.1344 C   0  0  0  0  0  0  0  0  0  0  0  0
   -2.3071   -0.1743   -0.5818 O   0  0  0  0  0  0  0  0  0  0  0  0
   -1.4566   -0.5145    0.5320 C   0  0  0  0  0  0  0  0  0  0  0  0
   -0.3889   -1.4670    0.1784 C   0  0  0  0  0  0  0  0  0  0  0  0
    0.8124   -0.9157   -0.4829 C   0  0  0  0  0  0  0  0  0  0  0  0
    1.7501    0.9328    2.1070 H   0  0  0  0  0  0  0  0  0  0  0  0
    2.7612   -0.0263    0.2080 H   0  0  0  0  0  0  0  0  0  0  0  0
    1.4712    0.7279   -1.7774 H   0  0  0  0  0  0  0  0  0  0  0  0
   -0.8028    1.4203   -1.7976 H   0  0  0  0  0  0  0  0  0  0  0  0
   -0.0783    2.3298   -0.4537 H   0  0  0  0  0  0  0  0  0  0  0  0
   -2.0765    1.5637    0.6232 H   0  0  0  0  0  0  0  0  0  0  0  0
   -2.1188   -0.8554    1.3824 H   0  0  0  0  0  0  0  0  0  0  0  0
   -0.0432   -1.9695    1.1322 H   0  0  0  0  0  0  0  0  0  0  0  0
   -0.8381   -2.3004   -0.4138 H   0  0  0  0  0  0  0  0  0  0  0  0
    1.4068   -1.6780   -1.0644 H   0  0  0  0  0  0  0  0  0  0  0  0
  1  2  1  0
  2  3  1  0
  3  4  1  0
  4  5  1  0
  5  6  1  0
  6  7  1  0
  7  8  1  0
  8  9  1  0
  9  2  1  0
  9  3  1  0
  7  5  1  0
  1 10  1  0
  2 11  1  0
  3 12  1  0
  4 13  1  0
  4 14  1  0
  5 15  1  0
  7 16  1  0
  8 17  1  0
  8 18  1  0
  9 19  1  0
M  END
