
     RDKit          3D

 19 21  0  0  0  0  0  0  0  0999 V2000
    2.4781   -0.6708    0.6635 O   0  0  0  0  0  0  0  0  0  0  0  0
    1.5000    0.2095    0.2701 C   0  0  0  0  0  0  0  0  0  0  0  0
    0.9477   -0.1217   -1.1232 C   0  0  0  0  0  0  0  0  0  0  0  0
   -0.5264    0.0668   -1.0399 C   0  0  0  0  0  0  0  0  0  0  0  0
   -1.1469   -1.0160   -0.1682 C   0  0  0  0  0  0  0  0  0  0  0  0
   -2.0113    0.1214    0.3993 C   0  0  0  0  0  0  0  0  0  0  0  0
   -0.7294    0.8906    0.2425 C   0  0  0  0  0  0  0  0  0  0  0  0
    0.2326    0.1119    1.0893 C   0  0  0  0  0  0  0  0  0  0  0  0
   -0.2571   -1.2003    0.8647 O   0  0  0  0  0  0  0  0  0  0  0  0
    3.3590   -0.1803    0.7275 H   0  0  0  0  0  0  0  0  0  0  0  0
    1.8147    1.2802    0.3104 H   0  0  0  0  0  0  0  0  0  0  0  0
    1.4500    0.4557   -1.9043 H   0  0  0  0  0  0  0  0  0  0  0  0
    1.1338   -1.2295   -1.2377 H   0  0  0  0  0  0  0  0  0  0  0  0
   -1.0794    0.3841   -1.8985 H   0  0  0  0  0  0  0  0  0  0  0  0
   -1.6420   -1.8257   -0.6305 H   0  0  0  0  0  0  0  0  0  0  0  0
   -2.3466   -0.0892    1.4182 H   0  0  0  0  0  0  0  0  0  0  0  0
   -2.7782    0.4951   -0.2825 H   0  0  0  0  0  0  0  0  0  0  0  0
   -0.7102    1.9326    0.1811 H   0  0  0  0  0  0  0  0  0  0  0  0
    0.3115    0.3853    2.1181 H   0  0  0  0  0  0  0  0  0  0  0  0
  1  2  1  0
  2  3  1  0
  3  4  1  0
  4  5  1  0
  5  6  1  0
  6  7  1  0
  7  8  1  0
  8  9  1  0
  8  2  1  0
  7  4  1  0
  9  5  1  0
  1 10  1  0
  2 11  1  0
  3 12  1  0
  3 13  1  0
  4 14  1  0
  5 15  1  0
  6 16  1  0
  6 17  1  0
  7 18  1  0
  8 19  1  0
M  END
