
     RDKit          3D

 19 20  0  0  0  0  0  0  0  0999 V2000
    0.1462    1.3311   -1.3451 O   0  0  0  0  0  0  0  0  0  0  0  0
    0.0163    1.1130    0.0307 C   0  0  0  0  0  0  0  0  0  0  0  0
    1.3279    0.5357    0.5912 C   0  0  0  0  0  0  0  0  0  0  0  0
    1.5878   -0.8719    0.2106 C   0  0  0  0  0  0  0  0  0  0  0  0
    0.4479   -1.7016    0.1393 O   0  0  0  0  0  0  0  0  0  0  0  0
   -0.4260   -1.0849   -0.6765 C   0  0  0  0  0  0  0  0  0  0  0  0
   -1.7894   -0.7265   -0.5745 C   0  0  0  0  0  0  0  0  0  0  0  0
   -0.9668    0.0524    0.2670 C   0  0  0  0  0  0  0  0  0  0  0  0
   -1.0242   -0.2718    1.6487 O   0  0  0  0  0  0  0  0  0  0  0  0
   -0.3854    2.1312   -1.6161 H   0  0  0  0  0  0  0  0  0  0  0  0
   -0.1646    2.0695    0.5194 H   0  0  0  0  0  0  0  0  0  0  0  0
    1.2099    0.6212    1.7060 H   0  0  0  0  0  0  0  0  0  0  0  0
    2.1713    1.1541    0.2438 H   0  0  0  0  0  0  0  0  0  0  0  0
    1.9885   -0.8673   -0.8461 H   0  0  0  0  0  0  0  0  0  0  0  0
    2.3530   -1.2829    0.8674 H   0  0  0  0  0  0  0  0  0  0  0  0
    0.0992   -0.7444   -1.6207 H   0  0  0  0  0  0  0  0  0  0  0  0
   -2.5083   -1.4513   -0.1261 H   0  0  0  0  0  0  0  0  0  0  0  0
   -2.2901   -0.2197   -1.4488 H   0  0  0  0  0  0  0  0  0  0  0  0
   -1.7933    0.2141    2.0297 H   0  0  0  0  0  0  0  0  0  0  0  0
  1  2  1  0
  2  3  1  0
  3  4  1  0
  4  5  1  0
  5  6  1  0
  6  7  1  0
  7  8  1  0
  8  9  1  0
  8  2  1  0
  8  6  1  0
  1 10  1  0
  2 11  1  0
  3 12  1  0
  3 13  1  0
  4 14  1  0
  4 15  1  0
  6 16  1  0
  7 17  1  0
  7 18  1  0
  9 19  1  0
M  END
