
     RDKit          3D

 21 22  0  0  0  0  0  0  0  0999 V2000
   -0.9014   -1.8383   -1.5813 O   0  0  0  0  0  0  0  0  0  0  0  0
   -0.8534   -1.1388   -0.3497 C   0  0  0  0  0  0  0  0  0  0  0  0
   -1.4264    0.1977   -0.4965 C   0  0  0  0  0  0  0  0  0  0  0  0
   -0.7666    1.3199    0.2062 C   0  0  0  0  0  0  0  0  0  0  0  0
    0.1638    0.9524    1.2960 C   0  0  0  0  0  0  0  0  0  0  0  0
    1.0437   -0.2115    1.0192 C   0  0  0  0  0  0  0  0  0  0  0  0
    1.6602   -0.4432   -0.3233 C   0  0  0  0  0  0  0  0  0  0  0  0
    1.5153    0.5942   -1.2247 O   0  0  0  0  0  0  0  0  0  0  0  0
    0.5355   -1.2536    0.1508 C   0  0  0  0  0  0  0  0  0  0  0  0
   -1.5357   -1.3615   -2.1614 H   0  0  0  0  0  0  0  0  0  0  0  0
   -1.5099   -1.7575    0.3331 H   0  0  0  0  0  0  0  0  0  0  0  0
   -2.5222    0.1801   -0.2168 H   0  0  0  0  0  0  0  0  0  0  0  0
   -1.4483    0.4622   -1.5966 H   0  0  0  0  0  0  0  0  0  0  0  0
   -0.2098    1.9978   -0.5077 H   0  0  0  0  0  0  0  0  0  0  0  0
   -1.5428    2.0125    0.6533 H   0  0  0  0  0  0  0  0  0  0  0  0
    0.8397    1.8386    1.4822 H   0  0  0  0  0  0  0  0  0  0  0  0
   -0.3506    0.7855    2.2685 H   0  0  0  0  0  0  0  0  0  0  0  0
    1.7319   -0.4645    1.8702 H   0  0  0  0  0  0  0  0  0  0  0  0
    2.6867   -0.9135   -0.3811 H   0  0  0  0  0  0  0  0  0  0  0  0
    2.0841    1.3529   -0.8916 H   0  0  0  0  0  0  0  0  0  0  0  0
    0.8063   -2.3112    0.4512 H   0  0  0  0  0  0  0  0  0  0  0  0
  1  2  1  0
  2  3  1  0
  3  4  1  0
  4  5  1  0
  5  6  1  0
  6  7  1  0
  7  8  1  0
  7  9  1  0
  9  2  1  0
  9  6  1  0
  1 10  1  0
  2 11  1  0
  3 12  1  0
  3 13  1  0
  4 14  1  0
  4 15  1  0
  5 16  1  0
  5 17  1  0
  6 18  1  0
  7 19  1  0
  8 20  1  0
  9 21  1  0
M  END
