
     RDKit          3D

 19 21  0  0  0  0  0  0  0  0999 V2000
    1.9281    1.4921   -0.1565 O   0  0  0  0  0  0  0  0  0  0  0  0
    1.4301    0.4299    0.5500 C   0  0  0  0  0  0  0  0  0  0  0  0
    1.2822   -0.8301   -0.3155 C   0  0  0  0  0  0  0  0  0  0  0  0
   -0.1098   -1.2791    0.0206 C   0  0  0  0  0  0  0  0  0  0  0  0
   -0.3403   -0.7133    1.2980 O   0  0  0  0  0  0  0  0  0  0  0  0
   -0.0118    0.6283    0.9834 C   0  0  0  0  0  0  0  0  0  0  0  0
   -0.9292    0.8901   -0.1823 C   0  0  0  0  0  0  0  0  0  0  0  0
   -2.2644    0.1847   -0.1012 C   0  0  0  0  0  0  0  0  0  0  0  0
   -1.0696   -0.4546   -0.8072 C   0  0  0  0  0  0  0  0  0  0  0  0
    2.7661    1.1915   -0.6010 H   0  0  0  0  0  0  0  0  0  0  0  0
    2.0127    0.1475    1.4330 H   0  0  0  0  0  0  0  0  0  0  0  0
    2.0099   -1.6011   -0.0307 H   0  0  0  0  0  0  0  0  0  0  0  0
    1.3594   -0.5471   -1.3871 H   0  0  0  0  0  0  0  0  0  0  0  0
   -0.2802   -2.3425   -0.0116 H   0  0  0  0  0  0  0  0  0  0  0  0
   -0.1326    1.2997    1.8217 H   0  0  0  0  0  0  0  0  0  0  0  0
   -0.8910    1.8108   -0.7499 H   0  0  0  0  0  0  0  0  0  0  0  0
   -3.0545    0.5545   -0.7640 H   0  0  0  0  0  0  0  0  0  0  0  0
   -2.5495   -0.2585    0.8797 H   0  0  0  0  0  0  0  0  0  0  0  0
   -1.1558   -0.6028   -1.8794 H   0  0  0  0  0  0  0  0  0  0  0  0
  1  2  1  0
  2  3  1  0
  3  4  1  0
  4  5  1  0
  5  6  1  0
  6  7  1  0
  7  8  1  0
  8  9  1  0
  6  2  1  0
  9  7  1  0
  9  4  1  0
  1 10  1  0
  2 11  1  0
  3 12  1  0
  3 13  1  0
  4 14  1  0
  6 15  1  0
  7 16  1  0
  8 17  1  0
  8 18  1  0
  9 19  1  0
M  END
