
     RDKit          3D

 19 20  0  0  0  0  0  0  0  0999 V2000
   -1.9047    1.6214   -0.0938 O   0  0  0  0  0  0  0  0  0  0  0  0
   -0.7077    0.9280   -0.2441 C   0  0  0  0  0  0  0  0  0  0  0  0
    0.4460    1.7077    0.2441 C   0  0  0  0  0  0  0  0  0  0  0  0
    1.5991    1.0892    0.3645 C   0  0  0  0  0  0  0  0  0  0  0  0
    1.7656   -0.3702    0.0215 C   0  0  0  0  0  0  0  0  0  0  0  0
    0.5074   -1.1522    0.1618 C   0  0  0  0  0  0  0  0  0  0  0  0
   -0.1446   -1.4745   -1.0524 O   0  0  0  0  0  0  0  0  0  0  0  0
   -1.3352   -1.4765   -0.2906 C   0  0  0  0  0  0  0  0  0  0  0  0
   -0.7101   -0.3717    0.5316 C   0  0  0  0  0  0  0  0  0  0  0  0
   -2.3770    1.6038   -0.9656 H   0  0  0  0  0  0  0  0  0  0  0  0
   -0.5520    0.6337   -1.3225 H   0  0  0  0  0  0  0  0  0  0  0  0
    0.3354    2.7392    0.4883 H   0  0  0  0  0  0  0  0  0  0  0  0
    2.4472    1.6721    0.7262 H   0  0  0  0  0  0  0  0  0  0  0  0
    2.5294   -0.7873    0.7243 H   0  0  0  0  0  0  0  0  0  0  0  0
    2.2008   -0.4619   -1.0063 H   0  0  0  0  0  0  0  0  0  0  0  0
    0.5962   -2.1109    0.7356 H   0  0  0  0  0  0  0  0  0  0  0  0
   -1.4976   -2.4135    0.2487 H   0  0  0  0  0  0  0  0  0  0  0  0
   -2.2055   -1.0603   -0.8469 H   0  0  0  0  0  0  0  0  0  0  0  0
   -0.9926   -0.3162    1.5756 H   0  0  0  0  0  0  0  0  0  0  0  0
  1  2  1  0
  2  3  1  0
  3  4  2  0
  4  5  1  0
  5  6  1  0
  6  7  1  0
  7  8  1  0
  8  9  1  0
  9  2  1  0
  9  6  1  0
  1 10  1  0
  2 11  1  0
  3 12  1  0
  4 13  1  0
  5 14  1  0
  5 15  1  0
  6 16  1  0
  8 17  1  0
  8 18  1  0
  9 19  1  0
M  END
