
     RDKit          3D

 19 20  0  0  0  0  0  0  0  0999 V2000
    2.0055    1.1348   -1.1976 O   0  0  0  0  0  0  0  0  0  0  0  0
    1.3881   -0.1033   -0.9582 C   0  0  0  0  0  0  0  0  0  0  0  0
    1.7379   -0.7357    0.3736 C   0  0  0  0  0  0  0  0  0  0  0  0
    0.3960   -0.1736    0.1108 C   0  0  0  0  0  0  0  0  0  0  0  0
   -0.7380   -1.1918    0.0889 C   0  0  0  0  0  0  0  0  0  0  0  0
   -1.9701   -0.4051    0.5473 C   0  0  0  0  0  0  0  0  0  0  0  0
   -2.0553    0.6908   -0.3326 O   0  0  0  0  0  0  0  0  0  0  0  0
   -1.0666    1.6156    0.0249 C   0  0  0  0  0  0  0  0  0  0  0  0
   -0.0533    0.9817    0.7273 O   0  0  0  0  0  0  0  0  0  0  0  0
    2.9246    1.0426   -0.8257 H   0  0  0  0  0  0  0  0  0  0  0  0
    1.3625   -0.7365   -1.8699 H   0  0  0  0  0  0  0  0  0  0  0  0
    1.9067   -1.8220    0.3054 H   0  0  0  0  0  0  0  0  0  0  0  0
    2.3548   -0.1578    1.1006 H   0  0  0  0  0  0  0  0  0  0  0  0
   -0.4946   -1.9978    0.8217 H   0  0  0  0  0  0  0  0  0  0  0  0
   -0.9005   -1.6142   -0.9189 H   0  0  0  0  0  0  0  0  0  0  0  0
   -1.7326   -0.0246    1.5733 H   0  0  0  0  0  0  0  0  0  0  0  0
   -2.8710   -1.0084    0.5729 H   0  0  0  0  0  0  0  0  0  0  0  0
   -0.6408    2.1481   -0.8294 H   0  0  0  0  0  0  0  0  0  0  0  0
   -1.5533    2.3571    0.6857 H   0  0  0  0  0  0  0  0  0  0  0  0
  1  2  1  0
  2  3  1  0
  3  4  1  0
  4  5  1  0
  5  6  1  0
  6  7  1  0
  7  8  1  0
  8  9  1  0
  4  2  1  0
  9  4  1  0
  1 10  1  0
  2 11  1  0
  3 12  1  0
  3 13  1  0
  5 14  1  0
  5 15  1  0
  6 16  1  0
  6 17  1  0
  8 18  1  0
  8 19  1  0
M  END
