
     RDKit          3D

 21 23  0  0  0  0  0  0  0  0999 V2000
    2.3990   -0.2628    1.0331 O   0  0  0  0  0  0  0  0  0  0  0  0
    1.4266   -0.0249    0.0346 C   0  0  0  0  0  0  0  0  0  0  0  0
    0.6752    1.2140    0.3419 C   0  0  0  0  0  0  0  0  0  0  0  0
   -0.7968    1.0285    0.0270 C   0  0  0  0  0  0  0  0  0  0  0  0
   -0.8851    0.3631   -1.3191 C   0  0  0  0  0  0  0  0  0  0  0  0
   -0.5145   -1.0618   -1.0698 C   0  0  0  0  0  0  0  0  0  0  0  0
   -0.7310   -1.2892    0.3728 C   0  0  0  0  0  0  0  0  0  0  0  0
   -1.2833   -0.0444    0.9848 C   0  0  0  0  0  0  0  0  0  0  0  0
    0.6121   -1.2507   -0.1391 C   0  0  0  0  0  0  0  0  0  0  0  0
    2.6347    0.5580    1.5189 H   0  0  0  0  0  0  0  0  0  0  0  0
    2.0339    0.1144   -0.9084 H   0  0  0  0  0  0  0  0  0  0  0  0
    0.8049    1.5396    1.4068 H   0  0  0  0  0  0  0  0  0  0  0  0
    1.0246    2.0444   -0.3244 H   0  0  0  0  0  0  0  0  0  0  0  0
   -1.3754    1.9486    0.0687 H   0  0  0  0  0  0  0  0  0  0  0  0
   -1.9381    0.4638   -1.6630 H   0  0  0  0  0  0  0  0  0  0  0  0
   -0.2051    0.8575   -2.0594 H   0  0  0  0  0  0  0  0  0  0  0  0
   -0.6699   -1.8274   -1.8369 H   0  0  0  0  0  0  0  0  0  0  0  0
   -1.1574   -2.2732    0.6620 H   0  0  0  0  0  0  0  0  0  0  0  0
   -0.8861    0.1001    2.0141 H   0  0  0  0  0  0  0  0  0  0  0  0
   -2.3668   -0.0038    1.0441 H   0  0  0  0  0  0  0  0  0  0  0  0
    1.1983   -2.1937   -0.1888 H   0  0  0  0  0  0  0  0  0  0  0  0
  1  2  1  0
  2  3  1  0
  3  4  1  0
  4  5  1  0
  5  6  1  0
  6  7  1  0
  7  8  1  0
  7  9  1  0
  9  2  1  0
  8  4  1  0
  9  6  1  0
  1 10  1  0
  2 11  1  0
  3 12  1  0
  3 13  1  0
  4 14  1  0
  5 15  1  0
  5 16  1  0
  6 17  1  0
  7 18  1  0
  8 19  1  0
  8 20  1  0
  9 21  1  0
M  END
