
     RDKit          3D

 19 20  0  0  0  0  0  0  0  0999 V2000
    1.4704    1.7828   -0.9551 O   0  0  0  0  0  0  0  0  0  0  0  0
    0.7941    0.8675   -0.1745 C   0  0  0  0  0  0  0  0  0  0  0  0
    1.5451   -0.4531   -0.0944 C   0  0  0  0  0  0  0  0  0  0  0  0
    0.8984   -1.3432    0.7183 O   0  0  0  0  0  0  0  0  0  0  0  0
   -0.4810   -1.3516    0.5856 C   0  0  0  0  0  0  0  0  0  0  0  0
   -1.1254   -0.2449    1.3506 C   0  0  0  0  0  0  0  0  0  0  0  0
   -1.5024    0.7374    0.5343 C   0  0  0  0  0  0  0  0  0  0  0  0
   -0.6011    0.5905   -0.6475 C   0  0  0  0  0  0  0  0  0  0  0  0
   -0.7799   -0.9187   -0.8538 C   0  0  0  0  0  0  0  0  0  0  0  0
    1.9570    2.4752   -0.4143 H   0  0  0  0  0  0  0  0  0  0  0  0
    0.8184    1.2781    0.8784 H   0  0  0  0  0  0  0  0  0  0  0  0
    1.8172   -0.8364   -1.0908 H   0  0  0  0  0  0  0  0  0  0  0  0
    2.5293   -0.2106    0.4054 H   0  0  0  0  0  0  0  0  0  0  0  0
   -0.9327   -2.3245    0.8128 H   0  0  0  0  0  0  0  0  0  0  0  0
   -1.2779   -0.2256    2.4455 H   0  0  0  0  0  0  0  0  0  0  0  0
   -2.2810    1.4712    0.6915 H   0  0  0  0  0  0  0  0  0  0  0  0
   -0.9154    1.1668   -1.5135 H   0  0  0  0  0  0  0  0  0  0  0  0
   -0.0995   -1.3348   -1.5769 H   0  0  0  0  0  0  0  0  0  0  0  0
   -1.8337   -1.1262   -1.1014 H   0  0  0  0  0  0  0  0  0  0  0  0
  1  2  1  0
  2  3  1  0
  3  4  1  0
  4  5  1  0
  5  6  1  0
  6  7  2  0
  7  8  1  0
  8  9  1  0
  8  2  1  0
  9  5  1  0
  1 10  1  0
  2 11  1  0
  3 12  1  0
  3 13  1  0
  5 14  1  0
  6 15  1  0
  7 16  1  0
  8 17  1  0
  9 18  1  0
  9 19  1  0
M  END
