
     RDKit          3D

 21 21  0  0  0  0  0  0  0  0999 V2000
    1.9592   -1.7699   -0.2254 O   0  0  0  0  0  0  0  0  0  0  0  0
    1.0231   -0.7783   -0.3941 C   0  0  0  0  0  0  0  0  0  0  0  0
    1.4187    0.5191    0.3194 C   0  0  0  0  0  0  0  0  0  0  0  0
    0.4890    1.5885   -0.2717 C   0  0  0  0  0  0  0  0  0  0  0  0
   -0.9045    1.2388    0.2289 C   0  0  0  0  0  0  0  0  0  0  0  0
   -1.2975   -0.0810   -0.3610 C   0  0  0  0  0  0  0  0  0  0  0  0
   -2.6145   -0.4168   -0.1614 O   0  0  0  0  0  0  0  0  0  0  0  0
   -0.3342   -1.1521    0.1483 C   0  0  0  0  0  0  0  0  0  0  0  0
   -0.2375   -1.0951    1.5530 O   0  0  0  0  0  0  0  0  0  0  0  0
    2.7986   -1.4658   -0.6469 H   0  0  0  0  0  0  0  0  0  0  0  0
    0.8749   -0.5811   -1.4909 H   0  0  0  0  0  0  0  0  0  0  0  0
    1.1032    0.4318    1.3924 H   0  0  0  0  0  0  0  0  0  0  0  0
    2.4710    0.7650    0.1894 H   0  0  0  0  0  0  0  0  0  0  0  0
    0.4907    1.4606   -1.3684 H   0  0  0  0  0  0  0  0  0  0  0  0
    0.8306    2.5718    0.0539 H   0  0  0  0  0  0  0  0  0  0  0  0
   -1.6257    2.0330    0.0295 H   0  0  0  0  0  0  0  0  0  0  0  0
   -0.7962    1.0839    1.3372 H   0  0  0  0  0  0  0  0  0  0  0  0
   -1.1304   -0.0324   -1.4717 H   0  0  0  0  0  0  0  0  0  0  0  0
   -2.7961   -1.2448   -0.6639 H   0  0  0  0  0  0  0  0  0  0  0  0
   -0.6103   -2.1560   -0.1733 H   0  0  0  0  0  0  0  0  0  0  0  0
   -1.1122   -0.9191    1.9769 H   0  0  0  0  0  0  0  0  0  0  0  0
  1  2  1  0
  2  3  1  0
  3  4  1  0
  4  5  1  0
  5  6  1  0
  6  7  1  0
  6  8  1  0
  8  9  1  0
  8  2  1  0
  1 10  1  0
  2 11  1  0
  3 12  1  0
  3 13  1  0
  4 14  1  0
  4 15  1  0
  5 16  1  0
  5 17  1  0
  6 18  1  0
  7 19  1  0
  8 20  1  0
  9 21  1  0
M  END
