
     RDKit          3D

 19 21  0  0  0  0  0  0  0  0999 V2000
    3.3621   -0.2761    0.3151 O   0  0  0  0  0  0  0  0  0  0  0  0
    2.1647    0.3668    0.1173 C   0  0  0  0  0  0  0  0  0  0  0  0
    1.2085    0.4151    1.2621 C   0  0  0  0  0  0  0  0  0  0  0  0
    1.0535   -0.9520    1.0898 O   0  0  0  0  0  0  0  0  0  0  0  0
    0.9860   -0.5069   -0.2192 C   0  0  0  0  0  0  0  0  0  0  0  0
    0.1104    0.5881    0.2650 C   0  0  0  0  0  0  0  0  0  0  0  0
   -1.2684    0.2387    0.7125 C   0  0  0  0  0  0  0  0  0  0  0  0
   -2.3312    0.4446   -0.3688 C   0  0  0  0  0  0  0  0  0  0  0  0
   -2.0197   -0.9177    0.2285 C   0  0  0  0  0  0  0  0  0  0  0  0
    3.3297   -1.2457    0.3141 H   0  0  0  0  0  0  0  0  0  0  0  0
    2.2649    1.2578   -0.4996 H   0  0  0  0  0  0  0  0  0  0  0  0
    1.3232    0.9035    2.1368 H   0  0  0  0  0  0  0  0  0  0  0  0
    0.8844   -1.0722   -1.0475 H   0  0  0  0  0  0  0  0  0  0  0  0
    0.1407    1.4717   -0.3735 H   0  0  0  0  0  0  0  0  0  0  0  0
   -1.5110    0.6232    1.7430 H   0  0  0  0  0  0  0  0  0  0  0  0
   -3.2289    0.9895   -0.0464 H   0  0  0  0  0  0  0  0  0  0  0  0
   -2.0015    0.6208   -1.4023 H   0  0  0  0  0  0  0  0  0  0  0  0
   -2.8453   -1.2902    0.8774 H   0  0  0  0  0  0  0  0  0  0  0  0
   -1.6220   -1.6590   -0.4762 H   0  0  0  0  0  0  0  0  0  0  0  0
  1  2  1  0
  2  3  1  0
  3  4  1  0
  4  5  1  0
  5  6  1  0
  6  7  1  0
  7  8  1  0
  8  9  1  0
  5  2  1  0
  9  7  1  0
  6  3  1  0
  1 10  1  0
  2 11  1  0
  3 12  1  0
  5 13  1  0
  6 14  1  0
  7 15  1  0
  8 16  1  0
  8 17  1  0
  9 18  1  0
  9 19  1  0
M  END
