
     RDKit          3D

 21 22  0  0  0  0  0  0  0  0999 V2000
    2.2244   -1.3784   -0.5966 O   0  0  0  0  0  0  0  0  0  0  0  0
    1.1980   -0.7476    0.0903 C   0  0  0  0  0  0  0  0  0  0  0  0
    1.2752    0.7403   -0.1157 C   0  0  0  0  0  0  0  0  0  0  0  0
    0.4459    1.5400    0.8202 C   0  0  0  0  0  0  0  0  0  0  0  0
   -0.8633    1.7436    0.4181 O   0  0  0  0  0  0  0  0  0  0  0  0
   -1.2869    0.7887   -0.4653 C   0  0  0  0  0  0  0  0  0  0  0  0
   -2.4382   -0.0971   -0.2673 C   0  0  0  0  0  0  0  0  0  0  0  0
   -1.1715   -0.5514    0.2905 C   0  0  0  0  0  0  0  0  0  0  0  0
   -0.1250   -1.3155   -0.4409 C   0  0  0  0  0  0  0  0  0  0  0  0
    2.8998   -1.7859   -0.0024 H   0  0  0  0  0  0  0  0  0  0  0  0
    1.2694   -0.9959    1.1512 H   0  0  0  0  0  0  0  0  0  0  0  0
    2.3521    1.0101    0.0984 H   0  0  0  0  0  0  0  0  0  0  0  0
    1.1315    0.9931   -1.1858 H   0  0  0  0  0  0  0  0  0  0  0  0
    0.9133    2.5679    0.8727 H   0  0  0  0  0  0  0  0  0  0  0  0
    0.5153    1.1050    1.8254 H   0  0  0  0  0  0  0  0  0  0  0  0
   -0.8844    0.8722   -1.4734 H   0  0  0  0  0  0  0  0  0  0  0  0
   -2.8954   -0.5504   -1.1756 H   0  0  0  0  0  0  0  0  0  0  0  0
   -3.2179    0.2137    0.4642 H   0  0  0  0  0  0  0  0  0  0  0  0
   -1.0363   -0.5316    1.3846 H   0  0  0  0  0  0  0  0  0  0  0  0
   -0.1863   -1.2236   -1.5442 H   0  0  0  0  0  0  0  0  0  0  0  0
   -0.1196   -2.3972   -0.1484 H   0  0  0  0  0  0  0  0  0  0  0  0
  1  2  1  0
  2  3  1  0
  3  4  1  0
  4  5  1  0
  5  6  1  0
  6  7  1  0
  7  8  1  0
  8  9  1  0
  9  2  1  0
  8  6  1  0
  1 10  1  0
  2 11  1  0
  3 12  1  0
  3 13  1  0
  4 14  1  0
  4 15  1  0
  6 16  1  0
  7 17  1  0
  7 18  1  0
  8 19  1  0
  9 20  1  0
  9 21  1  0
M  END
