
     RDKit          3D

 17 19  0  0  0  0  0  0  0  0999 V2000
    2.1681   -0.5789    0.6245 O   0  0  0  0  0  0  0  0  0  0  0  0
    1.2289   -0.5870   -0.3999 C   0  0  0  0  0  0  0  0  0  0  0  0
    0.9491    0.8807   -0.7690 C   0  0  0  0  0  0  0  0  0  0  0  0
   -0.1785    0.7346   -1.5542 O   0  0  0  0  0  0  0  0  0  0  0  0
   -1.0177   -0.1347   -0.8555 C   0  0  0  0  0  0  0  0  0  0  0  0
   -1.6831    0.5641    0.3397 C   0  0  0  0  0  0  0  0  0  0  0  0
   -0.3134    0.4080    1.0105 C   0  0  0  0  0  0  0  0  0  0  0  0
    0.5452    1.3613    0.4904 O   0  0  0  0  0  0  0  0  0  0  0  0
   -0.1520   -0.8361    0.1444 C   0  0  0  0  0  0  0  0  0  0  0  0
    1.9892   -1.2555    1.3256 H   0  0  0  0  0  0  0  0  0  0  0  0
    1.4977   -1.1872   -1.2599 H   0  0  0  0  0  0  0  0  0  0  0  0
    1.7780    1.3853   -1.2013 H   0  0  0  0  0  0  0  0  0  0  0  0
   -1.6768   -0.7634   -1.4483 H   0  0  0  0  0  0  0  0  0  0  0  0
   -1.9244    1.6172    0.1774 H   0  0  0  0  0  0  0  0  0  0  0  0
   -2.4664   -0.0874    0.7543 H   0  0  0  0  0  0  0  0  0  0  0  0
   -0.3259    0.2549    2.0793 H   0  0  0  0  0  0  0  0  0  0  0  0
   -0.4182   -1.7759    0.5421 H   0  0  0  0  0  0  0  0  0  0  0  0
  1  2  1  0
  2  3  1  0
  3  4  1  0
  4  5  1  0
  5  6  1  0
  6  7  1  0
  7  8  1  0
  7  9  1  0
  9  2  1  0
  8  3  1  0
  9  5  1  0
  1 10  1  0
  2 11  1  0
  3 12  1  0
  5 13  1  0
  6 14  1  0
  6 15  1  0
  7 16  1  0
  9 17  1  0
M  END
