
     RDKit          3D

 19 20  0  0  0  0  0  0  0  0999 V2000
    1.5094    1.1845   -1.0298 O   0  0  0  0  0  0  0  0  0  0  0  0
    1.2884    0.2896    0.0056 C   0  0  0  0  0  0  0  0  0  0  0  0
    0.8274   -1.0734   -0.5142 C   0  0  0  0  0  0  0  0  0  0  0  0
   -0.5842   -0.8233   -0.9292 C   0  0  0  0  0  0  0  0  0  0  0  0
   -1.6700   -0.9604    0.0651 C   0  0  0  0  0  0  0  0  0  0  0  0
   -1.0616    0.3657   -0.1070 C   0  0  0  0  0  0  0  0  0  0  0  0
   -1.6448    1.3598   -0.8735 O   0  0  0  0  0  0  0  0  0  0  0  0
    0.0924    0.7166    0.8151 C   0  0  0  0  0  0  0  0  0  0  0  0
    0.0112   -0.1385    1.9329 O   0  0  0  0  0  0  0  0  0  0  0  0
    2.4927    1.3380   -1.0820 H   0  0  0  0  0  0  0  0  0  0  0  0
    2.1458    0.1983    0.6899 H   0  0  0  0  0  0  0  0  0  0  0  0
    0.8727   -1.7605    0.3608 H   0  0  0  0  0  0  0  0  0  0  0  0
    1.4679   -1.4391   -1.3333 H   0  0  0  0  0  0  0  0  0  0  0  0
   -0.7702   -0.8397   -2.0090 H   0  0  0  0  0  0  0  0  0  0  0  0
   -1.4514   -1.4826    1.0357 H   0  0  0  0  0  0  0  0  0  0  0  0
   -2.7173   -1.0698   -0.2407 H   0  0  0  0  0  0  0  0  0  0  0  0
   -1.5413    2.2617   -0.5109 H   0  0  0  0  0  0  0  0  0  0  0  0
    0.0849    1.7678    1.0908 H   0  0  0  0  0  0  0  0  0  0  0  0
    0.6482    0.1054    2.6338 H   0  0  0  0  0  0  0  0  0  0  0  0
  1  2  1  0
  2  3  1  0
  3  4  1  0
  4  5  1  0
  5  6  1  0
  6  7  1  0
  6  8  1  0
  8  9  1  0
  8  2  1  0
  6  4  1  0
  1 10  1  0
  2 11  1  0
  3 12  1  0
  3 13  1  0
  4 14  1  0
  5 15  1  0
  5 16  1  0
  7 17  1  0
  8 18  1  0
  9 19  1  0
M  END
