
     RDKit          3D

 21 22  0  0  0  0  0  0  0  0999 V2000
    1.9936    0.9132    1.2641 O   0  0  0  0  0  0  0  0  0  0  0  0
    1.6673    0.3561    0.0059 C   0  0  0  0  0  0  0  0  0  0  0  0
    0.9573    1.3659   -0.8160 C   0  0  0  0  0  0  0  0  0  0  0  0
   -0.4051    1.3542   -0.7158 O   0  0  0  0  0  0  0  0  0  0  0  0
   -0.9938    0.1386   -0.9414 C   0  0  0  0  0  0  0  0  0  0  0  0
   -2.2609    0.0301   -0.0754 C   0  0  0  0  0  0  0  0  0  0  0  0
   -1.3100   -0.4595    1.0295 C   0  0  0  0  0  0  0  0  0  0  0  0
   -0.4530   -0.9891   -0.1292 C   0  0  0  0  0  0  0  0  0  0  0  0
    0.9903   -0.9534    0.1522 C   0  0  0  0  0  0  0  0  0  0  0  0
    2.1587    0.1106    1.8499 H   0  0  0  0  0  0  0  0  0  0  0  0
    2.6718    0.1741   -0.4785 H   0  0  0  0  0  0  0  0  0  0  0  0
    1.3064    2.3828   -0.4800 H   0  0  0  0  0  0  0  0  0  0  0  0
    1.2272    1.3242   -1.9011 H   0  0  0  0  0  0  0  0  0  0  0  0
   -1.1745   -0.1583   -1.9815 H   0  0  0  0  0  0  0  0  0  0  0  0
   -2.9378   -0.7828   -0.3672 H   0  0  0  0  0  0  0  0  0  0  0  0
   -2.7073    1.0128    0.1168 H   0  0  0  0  0  0  0  0  0  0  0  0
   -0.8235    0.4139    1.4916 H   0  0  0  0  0  0  0  0  0  0  0  0
   -1.7235   -1.2247    1.6843 H   0  0  0  0  0  0  0  0  0  0  0  0
   -0.8336   -1.9588   -0.4861 H   0  0  0  0  0  0  0  0  0  0  0  0
    1.5119   -1.7589   -0.4442 H   0  0  0  0  0  0  0  0  0  0  0  0
    1.1384   -1.2911    1.2223 H   0  0  0  0  0  0  0  0  0  0  0  0
  1  2  1  0
  2  3  1  0
  3  4  1  0
  4  5  1  0
  5  6  1  0
  6  7  1  0
  7  8  1  0
  8  9  1  0
  9  2  1  0
  8  5  1  0
  1 10  1  0
  2 11  1  0
  3 12  1  0
  3 13  1  0
  5 14  1  0
  6 15  1  0
  6 16  1  0
  7 17  1  0
  7 18  1  0
  8 19  1  0
  9 20  1  0
  9 21  1  0
M  END
