
     RDKit          3D

 21 21  0  0  0  0  0  0  0  0999 V2000
   -1.6702    2.0882    0.1483 O   0  0  0  0  0  0  0  0  0  0  0  0
   -0.8688    1.0838   -0.3468 C   0  0  0  0  0  0  0  0  0  0  0  0
   -1.5555   -0.2347   -0.2649 C   0  0  0  0  0  0  0  0  0  0  0  0
   -0.6508   -1.3361   -0.8112 C   0  0  0  0  0  0  0  0  0  0  0  0
    0.6006   -1.3298    0.0765 C   0  0  0  0  0  0  0  0  0  0  0  0
    0.1219   -1.3349    1.3926 O   0  0  0  0  0  0  0  0  0  0  0  0
    1.2926   -0.0087   -0.1986 C   0  0  0  0  0  0  0  0  0  0  0  0
    2.5954    0.0141    0.2301 O   0  0  0  0  0  0  0  0  0  0  0  0
    0.4316    1.0628    0.4624 C   0  0  0  0  0  0  0  0  0  0  0  0
   -1.4000    2.3046    1.0632 H   0  0  0  0  0  0  0  0  0  0  0  0
   -0.5465    1.2879   -1.3995 H   0  0  0  0  0  0  0  0  0  0  0  0
   -2.4551   -0.1944   -0.9205 H   0  0  0  0  0  0  0  0  0  0  0  0
   -1.8119   -0.4665    0.7860 H   0  0  0  0  0  0  0  0  0  0  0  0
   -1.1535   -2.3016   -0.7934 H   0  0  0  0  0  0  0  0  0  0  0  0
   -0.3455   -1.0261   -1.8305 H   0  0  0  0  0  0  0  0  0  0  0  0
    1.2728   -2.1573   -0.1457 H   0  0  0  0  0  0  0  0  0  0  0  0
    0.8155   -1.2150    2.0621 H   0  0  0  0  0  0  0  0  0  0  0  0
    1.2421    0.1814   -1.3057 H   0  0  0  0  0  0  0  0  0  0  0  0
    3.0316    0.8070   -0.1882 H   0  0  0  0  0  0  0  0  0  0  0  0
    0.9099    2.0359    0.5022 H   0  0  0  0  0  0  0  0  0  0  0  0
    0.1438    0.7396    1.4814 H   0  0  0  0  0  0  0  0  0  0  0  0
  1  2  1  0
  2  3  1  0
  3  4  1  0
  4  5  1  0
  5  6  1  0
  5  7  1  0
  7  8  1  0
  7  9  1  0
  9  2  1  0
  1 10  1  0
  2 11  1  0
  3 12  1  0
  3 13  1  0
  4 14  1  0
  4 15  1  0
  5 16  1  0
  6 17  1  0
  7 18  1  0
  8 19  1  0
  9 20  1  0
  9 21  1  0
M  END
