
     RDKit          3D

 19 20  0  0  0  0  0  0  0  0999 V2000
   -0.8521   -1.8565   -0.5126 O   0  0  0  0  0  0  0  0  0  0  0  0
   -0.7148   -0.8004    0.4064 C   0  0  0  0  0  0  0  0  0  0  0  0
   -1.9659    0.0804    0.3438 C   0  0  0  0  0  0  0  0  0  0  0  0
   -1.1759    1.1340   -0.3989 C   0  0  0  0  0  0  0  0  0  0  0  0
    0.0579    0.3463   -0.1559 C   0  0  0  0  0  0  0  0  0  0  0  0
    1.0746    0.9612    0.7136 C   0  0  0  0  0  0  0  0  0  0  0  0
    2.2234    0.4056    0.3639 C   0  0  0  0  0  0  0  0  0  0  0  0
    1.9203   -0.5585   -0.7251 C   0  0  0  0  0  0  0  0  0  0  0  0
    0.7796   -0.0281   -1.3125 O   0  0  0  0  0  0  0  0  0  0  0  0
   -1.8191   -2.1218   -0.5171 H   0  0  0  0  0  0  0  0  0  0  0  0
   -0.4372   -1.1232    1.4254 H   0  0  0  0  0  0  0  0  0  0  0  0
   -2.7789   -0.3291   -0.2777 H   0  0  0  0  0  0  0  0  0  0  0  0
   -2.2545    0.3659    1.3875 H   0  0  0  0  0  0  0  0  0  0  0  0
   -1.4825    1.2927   -1.4425 H   0  0  0  0  0  0  0  0  0  0  0  0
   -1.1727    2.0814    0.1816 H   0  0  0  0  0  0  0  0  0  0  0  0
    0.9347    1.7015    1.4729 H   0  0  0  0  0  0  0  0  0  0  0  0
    3.1970    0.6335    0.8105 H   0  0  0  0  0  0  0  0  0  0  0  0
    1.6951   -1.5732   -0.2968 H   0  0  0  0  0  0  0  0  0  0  0  0
    2.7708   -0.6117   -1.4383 H   0  0  0  0  0  0  0  0  0  0  0  0
  1  2  1  0
  2  3  1  0
  3  4  1  0
  4  5  1  0
  5  6  1  0
  6  7  2  0
  7  8  1  0
  8  9  1  0
  5  2  1  0
  9  5  1  0
  1 10  1  0
  2 11  1  0
  3 12  1  0
  3 13  1  0
  4 14  1  0
  4 15  1  0
  6 16  1  0
  7 17  1  0
  8 18  1  0
  8 19  1  0
M  END
