
     RDKit          3D

 19 20  0  0  0  0  0  0  0  0999 V2000
    1.7238   -1.6826   -0.4571 O   0  0  0  0  0  0  0  0  0  0  0  0
    0.8707   -0.7859    0.1723 C   0  0  0  0  0  0  0  0  0  0  0  0
    1.5917    0.5676    0.2028 C   0  0  0  0  0  0  0  0  0  0  0  0
    0.7031    1.7157   -0.0542 C   0  0  0  0  0  0  0  0  0  0  0  0
   -0.6466    1.6673    0.0560 C   0  0  0  0  0  0  0  0  0  0  0  0
   -1.1526    0.3711    0.4541 C   0  0  0  0  0  0  0  0  0  0  0  0
   -1.7504   -0.7055   -0.2303 C   0  0  0  0  0  0  0  0  0  0  0  0
   -2.1289   -1.8512    0.5102 O   0  0  0  0  0  0  0  0  0  0  0  0
   -0.3823   -0.5613   -0.5447 C   0  0  0  0  0  0  0  0  0  0  0  0
    2.2986   -2.1795    0.1820 H   0  0  0  0  0  0  0  0  0  0  0  0
    0.7154   -1.0920    1.2383 H   0  0  0  0  0  0  0  0  0  0  0  0
    2.1135    0.6808    1.1971 H   0  0  0  0  0  0  0  0  0  0  0  0
    2.3746    0.5821   -0.5846 H   0  0  0  0  0  0  0  0  0  0  0  0
    1.1918    2.6479   -0.3493 H   0  0  0  0  0  0  0  0  0  0  0  0
   -1.2629    2.5343   -0.1419 H   0  0  0  0  0  0  0  0  0  0  0  0
   -0.9476    0.2041    1.5554 H   0  0  0  0  0  0  0  0  0  0  0  0
   -2.5248   -0.4975   -0.9977 H   0  0  0  0  0  0  0  0  0  0  0  0
   -2.6210   -1.4845    1.2916 H   0  0  0  0  0  0  0  0  0  0  0  0
   -0.1661   -0.1309   -1.5707 H   0  0  0  0  0  0  0  0  0  0  0  0
  1  2  1  0
  2  3  1  0
  3  4  1  0
  4  5  2  0
  5  6  1  0
  6  7  1  0
  7  8  1  0
  7  9  1  0
  9  2  1  0
  9  6  1  0
  1 10  1  0
  2 11  1  0
  3 12  1  0
  3 13  1  0
  4 14  1  0
  5 15  1  0
  6 16  1  0
  7 17  1  0
  8 18  1  0
  9 19  1  0
M  END
