
     RDKit          3D

 13 14  0  0  0  0  0  0  0  0999 V2000
    2.1476    0.2744   -0.3513 O   0  0  0  0  0  0  0  0  0  0  0  0
    0.8981   -0.0046    0.1938 C   0  0  0  0  0  0  0  0  0  0  0  0
    0.0053   -0.8707   -0.6364 C   0  0  0  0  0  0  0  0  0  0  0  0
   -1.2552   -0.8818    0.1827 C   0  0  0  0  0  0  0  0  0  0  0  0
   -1.3728    0.4381    0.4667 C   0  0  0  0  0  0  0  0  0  0  0  0
   -0.1548    0.9685   -0.2406 C   0  0  0  0  0  0  0  0  0  0  0  0
   -0.2160    0.2527   -1.4325 O   0  0  0  0  0  0  0  0  0  0  0  0
    2.7025    0.6403    0.3824 H   0  0  0  0  0  0  0  0  0  0  0  0
    0.8845   -0.3107    1.2446 H   0  0  0  0  0  0  0  0  0  0  0  0
    0.3467   -1.7699   -1.0649 H   0  0  0  0  0  0  0  0  0  0  0  0
   -1.8912   -1.7030    0.4679 H   0  0  0  0  0  0  0  0  0  0  0  0
   -2.1171    0.9605    1.0321 H   0  0  0  0  0  0  0  0  0  0  0  0
    0.0223    2.0061   -0.2445 H   0  0  0  0  0  0  0  0  0  0  0  0
  1  2  1  0
  2  3  1  0
  3  4  1  0
  4  5  2  0
  5  6  1  0
  6  7  1  0
  6  2  1  0
  7  3  1  0
  1  8  1  0
  2  9  1  0
  3 10  1  0
  4 11  1  0
  5 12  1  0
  6 13  1  0
M  END
