
     RDKit          3D

 21 22  0  0  0  0  0  0  0  0999 V2000
    2.7045    0.4311   -0.9241 O   0  0  0  0  0  0  0  0  0  0  0  0
    2.1019    0.1529    0.2778 C   0  0  0  0  0  0  0  0  0  0  0  0
    1.0866    1.2098    0.6352 C   0  0  0  0  0  0  0  0  0  0  0  0
   -0.2301    0.6569    0.2108 C   0  0  0  0  0  0  0  0  0  0  0  0
   -0.1158   -0.6391   -0.0363 C   0  0  0  0  0  0  0  0  0  0  0  0
   -1.4201   -1.2101   -0.4618 C   0  0  0  0  0  0  0  0  0  0  0  0
   -2.4175   -0.1044   -0.2586 C   0  0  0  0  0  0  0  0  0  0  0  0
   -1.6197    1.1391   -0.0120 C   0  0  0  0  0  0  0  0  0  0  0  0
    1.2824   -1.0863    0.1971 C   0  0  0  0  0  0  0  0  0  0  0  0
    3.4161   -0.1917   -1.1407 H   0  0  0  0  0  0  0  0  0  0  0  0
    2.8494    0.0120    1.0980 H   0  0  0  0  0  0  0  0  0  0  0  0
    1.0835    1.3600    1.7200 H   0  0  0  0  0  0  0  0  0  0  0  0
    1.3476    2.1351    0.0850 H   0  0  0  0  0  0  0  0  0  0  0  0
   -1.3804   -1.5763   -1.5126 H   0  0  0  0  0  0  0  0  0  0  0  0
   -1.7190   -2.0918    0.1537 H   0  0  0  0  0  0  0  0  0  0  0  0
   -3.1017    0.0171   -1.1277 H   0  0  0  0  0  0  0  0  0  0  0  0
   -3.0600   -0.3232    0.6295 H   0  0  0  0  0  0  0  0  0  0  0  0
   -1.7020    1.7739   -0.9320 H   0  0  0  0  0  0  0  0  0  0  0  0
   -2.0004    1.7154    0.8802 H   0  0  0  0  0  0  0  0  0  0  0  0
    1.2943   -1.6423    1.1654 H   0  0  0  0  0  0  0  0  0  0  0  0
    1.6002   -1.7380   -0.6467 H   0  0  0  0  0  0  0  0  0  0  0  0
  1  2  1  0
  2  3  1  0
  3  4  1  0
  4  5  2  0
  5  6  1  0
  6  7  1  0
  7  8  1  0
  5  9  1  0
  9  2  1  0
  8  4  1  0
  1 10  1  0
  2 11  1  0
  3 12  1  0
  3 13  1  0
  6 14  1  0
  6 15  1  0
  7 16  1  0
  7 17  1  0
  8 18  1  0
  8 19  1  0
  9 20  1  0
  9 21  1  0
M  END
