
     RDKit          3D

 15 16  0  0  0  0  0  0  0  0999 V2000
    2.1205   -0.2868   -0.6724 O   0  0  0  0  0  0  0  0  0  0  0  0
    0.7779   -0.5406   -0.6134 C   0  0  0  0  0  0  0  0  0  0  0  0
    0.1772   -0.7694    0.7425 C   0  0  0  0  0  0  0  0  0  0  0  0
   -0.3838   -2.0344    0.9422 O   0  0  0  0  0  0  0  0  0  0  0  0
   -0.9012    0.2406    0.3742 C   0  0  0  0  0  0  0  0  0  0  0  0
   -0.4832    1.6247    0.0956 C   0  0  0  0  0  0  0  0  0  0  0  0
   -0.1123    0.6180   -0.9126 C   0  0  0  0  0  0  0  0  0  0  0  0
    2.4977    0.1802    0.1005 H   0  0  0  0  0  0  0  0  0  0  0  0
    0.5297   -1.4251   -1.2706 H   0  0  0  0  0  0  0  0  0  0  0  0
    0.7617   -0.4721    1.6122 H   0  0  0  0  0  0  0  0  0  0  0  0
   -1.3363   -2.0714    0.6869 H   0  0  0  0  0  0  0  0  0  0  0  0
   -1.9278   -0.0809    0.2230 H   0  0  0  0  0  0  0  0  0  0  0  0
   -1.2988    2.3209   -0.2015 H   0  0  0  0  0  0  0  0  0  0  0  0
    0.2593    2.1171    0.7583 H   0  0  0  0  0  0  0  0  0  0  0  0
   -0.6806    0.5793   -1.8650 H   0  0  0  0  0  0  0  0  0  0  0  0
  1  2  1  0
  2  3  1  0
  3  4  1  0
  3  5  1  0
  5  6  1  0
  6  7  1  0
  7  2  1  0
  7  5  1  0
  1  8  1  0
  2  9  1  0
  3 10  1  0
  4 11  1  0
  5 12  1  0
  6 13  1  0
  6 14  1  0
  7 15  1  0
M  END
