
     RDKit          3D

 19 20  0  0  0  0  0  0  0  0999 V2000
    2.1757    1.2350    0.8420 O   0  0  0  0  0  0  0  0  0  0  0  0
    1.7808   -0.0589    0.5326 C   0  0  0  0  0  0  0  0  0  0  0  0
    1.7668   -0.5689   -0.8526 C   0  0  0  0  0  0  0  0  0  0  0  0
    0.4625   -0.1340   -0.1904 C   0  0  0  0  0  0  0  0  0  0  0  0
   -0.4853   -1.2294    0.1361 C   0  0  0  0  0  0  0  0  0  0  0  0
   -1.8885   -0.8230    0.2299 C   0  0  0  0  0  0  0  0  0  0  0  0
   -2.2502    0.4218    0.0913 C   0  0  0  0  0  0  0  0  0  0  0  0
   -1.2183    1.4675   -0.1697 C   0  0  0  0  0  0  0  0  0  0  0  0
   -0.0749    0.9982   -0.7283 O   0  0  0  0  0  0  0  0  0  0  0  0
    3.0117    1.4996    0.3851 H   0  0  0  0  0  0  0  0  0  0  0  0
    1.9203   -0.7878    1.3561 H   0  0  0  0  0  0  0  0  0  0  0  0
    2.1516    0.0136   -1.7076 H   0  0  0  0  0  0  0  0  0  0  0  0
    1.9309   -1.6681   -0.9901 H   0  0  0  0  0  0  0  0  0  0  0  0
   -0.1911   -1.6425    1.1445 H   0  0  0  0  0  0  0  0  0  0  0  0
   -0.4106   -2.1004   -0.5631 H   0  0  0  0  0  0  0  0  0  0  0  0
   -2.6406   -1.5791    0.4193 H   0  0  0  0  0  0  0  0  0  0  0  0
   -3.2827    0.7413    0.1576 H   0  0  0  0  0  0  0  0  0  0  0  0
   -1.0824    2.0177    0.7836 H   0  0  0  0  0  0  0  0  0  0  0  0
   -1.6756    2.1974   -0.8763 H   0  0  0  0  0  0  0  0  0  0  0  0
  1  2  1  0
  2  3  1  0
  3  4  1  0
  4  5  1  0
  5  6  1  0
  6  7  2  0
  7  8  1  0
  8  9  1  0
  4  2  1  0
  9  4  1  0
  1 10  1  0
  2 11  1  0
  3 12  1  0
  3 13  1  0
  5 14  1  0
  5 15  1  0
  6 16  1  0
  7 17  1  0
  8 18  1  0
  8 19  1  0
M  END
