
     RDKit          3D

 19 21  0  0  0  0  0  0  0  0999 V2000
    2.4585   -0.9722    1.2728 O   0  0  0  0  0  0  0  0  0  0  0  0
    1.2635   -0.3771    0.8048 C   0  0  0  0  0  0  0  0  0  0  0  0
    1.3756    0.2234   -0.5676 C   0  0  0  0  0  0  0  0  0  0  0  0
    0.7087    1.3809   -0.8951 O   0  0  0  0  0  0  0  0  0  0  0  0
   -0.4698    1.5734   -0.2334 C   0  0  0  0  0  0  0  0  0  0  0  0
   -1.4500    0.4786   -0.5547 C   0  0  0  0  0  0  0  0  0  0  0  0
   -1.7944   -0.5192    0.5615 C   0  0  0  0  0  0  0  0  0  0  0  0
   -0.8873   -0.8704   -0.5684 C   0  0  0  0  0  0  0  0  0  0  0  0
    0.5869   -0.9759   -0.3772 C   0  0  0  0  0  0  0  0  0  0  0  0
    3.2530   -0.4671    0.9145 H   0  0  0  0  0  0  0  0  0  0  0  0
    0.7051    0.1117    1.6041 H   0  0  0  0  0  0  0  0  0  0  0  0
    2.3611    0.1280   -1.1069 H   0  0  0  0  0  0  0  0  0  0  0  0
   -0.8992    2.5434   -0.5853 H   0  0  0  0  0  0  0  0  0  0  0  0
   -0.3729    1.6789    0.8683 H   0  0  0  0  0  0  0  0  0  0  0  0
   -2.3091    0.7517   -1.2354 H   0  0  0  0  0  0  0  0  0  0  0  0
   -2.8370   -0.8934    0.5552 H   0  0  0  0  0  0  0  0  0  0  0  0
   -1.4055   -0.2663    1.5616 H   0  0  0  0  0  0  0  0  0  0  0  0
   -1.3370   -1.5809   -1.3048 H   0  0  0  0  0  0  0  0  0  0  0  0
    1.0498   -1.9474   -0.7140 H   0  0  0  0  0  0  0  0  0  0  0  0
  1  2  1  0
  2  3  1  0
  3  4  1  0
  4  5  1  0
  5  6  1  0
  6  7  1  0
  7  8  1  0
  8  9  1  0
  9  2  1  0
  9  3  1  0
  8  6  1  0
  1 10  1  0
  2 11  1  0
  3 12  1  0
  5 13  1  0
  5 14  1  0
  6 15  1  0
  7 16  1  0
  7 17  1  0
  8 18  1  0
  9 19  1  0
M  END
