
     RDKit          3D

 19 19  0  0  0  0  0  0  0  0999 V2000
    2.4587   -0.0404    0.8640 O   0  0  0  0  0  0  0  0  0  0  0  0
    1.6085   -0.3871   -0.1849 C   0  0  0  0  0  0  0  0  0  0  0  0
    0.5949   -1.3797    0.2207 C   0  0  0  0  0  0  0  0  0  0  0  0
   -0.7145   -1.4340    0.2597 C   0  0  0  0  0  0  0  0  0  0  0  0
   -1.7998   -0.5080   -0.0913 C   0  0  0  0  0  0  0  0  0  0  0  0
   -1.4028    0.6029   -0.7896 O   0  0  0  0  0  0  0  0  0  0  0  0
   -1.0015    1.6186    0.0762 C   0  0  0  0  0  0  0  0  0  0  0  0
    0.3808    1.5982    0.2581 O   0  0  0  0  0  0  0  0  0  0  0  0
    1.0178    0.8679   -0.7501 C   0  0  0  0  0  0  0  0  0  0  0  0
    2.1213   -0.3103    1.7459 H   0  0  0  0  0  0  0  0  0  0  0  0
    2.2146   -0.8692   -1.0039 H   0  0  0  0  0  0  0  0  0  0  0  0
    1.1076   -2.2896    0.5731 H   0  0  0  0  0  0  0  0  0  0  0  0
   -1.1021   -2.3728    0.6356 H   0  0  0  0  0  0  0  0  0  0  0  0
   -2.5568   -1.0613   -0.7157 H   0  0  0  0  0  0  0  0  0  0  0  0
   -2.3432   -0.2562    0.8604 H   0  0  0  0  0  0  0  0  0  0  0  0
   -1.3144    2.6198   -0.2821 H   0  0  0  0  0  0  0  0  0  0  0  0
   -1.4739    1.4384    1.0625 H   0  0  0  0  0  0  0  0  0  0  0  0
    0.3398    0.6781   -1.6034 H   0  0  0  0  0  0  0  0  0  0  0  0
    1.8651    1.4847   -1.1352 H   0  0  0  0  0  0  0  0  0  0  0  0
  1  2  1  0
  2  3  1  0
  3  4  2  3
  4  5  1  0
  5  6  1  0
  6  7  1  0
  7  8  1  0
  8  9  1  0
  9  2  1  0
  1 10  1  0
  2 11  1  0
  3 12  1  0
  4 13  1  0
  5 14  1  0
  5 15  1  0
  7 16  1  0
  7 17  1  0
  9 18  1  0
  9 19  1  0
M  END
