
     RDKit          3D

 21 23  0  0  0  0  0  0  0  0999 V2000
   -1.0970    1.7570    1.0297 O   0  0  0  0  0  0  0  0  0  0  0  0
   -1.2732    0.6128    0.2962 C   0  0  0  0  0  0  0  0  0  0  0  0
   -0.6245    0.6811   -1.0842 C   0  0  0  0  0  0  0  0  0  0  0  0
    0.2419   -0.5504   -1.1963 C   0  0  0  0  0  0  0  0  0  0  0  0
   -0.5613   -1.5211   -0.3089 C   0  0  0  0  0  0  0  0  0  0  0  0
   -0.5887   -0.5826    0.9148 C   0  0  0  0  0  0  0  0  0  0  0  0
    0.8823   -0.3880    1.1044 C   0  0  0  0  0  0  0  0  0  0  0  0
    1.6172    0.7684    0.5831 C   0  0  0  0  0  0  0  0  0  0  0  0
    1.4526   -0.3555   -0.3535 C   0  0  0  0  0  0  0  0  0  0  0  0
   -1.4611    2.5238    0.5193 H   0  0  0  0  0  0  0  0  0  0  0  0
   -2.3552    0.3287    0.1926 H   0  0  0  0  0  0  0  0  0  0  0  0
   -1.4079    0.6742   -1.8915 H   0  0  0  0  0  0  0  0  0  0  0  0
   -0.0871    1.6214   -1.1857 H   0  0  0  0  0  0  0  0  0  0  0  0
    0.3940   -0.9206   -2.1950 H   0  0  0  0  0  0  0  0  0  0  0  0
    0.0419   -2.4077   -0.0764 H   0  0  0  0  0  0  0  0  0  0  0  0
   -1.5556   -1.7096   -0.7020 H   0  0  0  0  0  0  0  0  0  0  0  0
   -1.1008   -1.0189    1.7599 H   0  0  0  0  0  0  0  0  0  0  0  0
    1.3728   -1.1212    1.7425 H   0  0  0  0  0  0  0  0  0  0  0  0
    2.6627    0.8748    0.9955 H   0  0  0  0  0  0  0  0  0  0  0  0
    1.1585    1.7638    0.4219 H   0  0  0  0  0  0  0  0  0  0  0  0
    2.2886   -1.0304   -0.5664 H   0  0  0  0  0  0  0  0  0  0  0  0
  1  2  1  0
  2  3  1  0
  3  4  1  0
  4  5  1  0
  5  6  1  0
  6  7  1  0
  7  8  1  0
  8  9  1  0
  6  2  1  0
  9  7  1  0
  9  4  1  0
  1 10  1  0
  2 11  1  0
  3 12  1  0
  3 13  1  0
  4 14  1  0
  5 15  1  0
  5 16  1  0
  6 17  1  0
  7 18  1  0
  8 19  1  0
  8 20  1  0
  9 21  1  0
M  END
