
     RDKit          3D

 23 24  0  0  0  0  0  0  0  0999 V2000
   -2.5602   -1.2211    0.5640 O   0  0  0  0  0  0  0  0  0  0  0  0
   -1.6650   -0.5602   -0.2868 C   0  0  0  0  0  0  0  0  0  0  0  0
   -1.5916    0.8859    0.0259 C   0  0  0  0  0  0  0  0  0  0  0  0
   -0.3324    1.5948   -0.2020 C   0  0  0  0  0  0  0  0  0  0  0  0
    0.9045    0.8265   -0.3846 C   0  0  0  0  0  0  0  0  0  0  0  0
    1.6255    0.3647    0.8738 C   0  0  0  0  0  0  0  0  0  0  0  0
    2.0730   -0.8368    0.0256 C   0  0  0  0  0  0  0  0  0  0  0  0
    0.7949   -0.5848   -0.7916 C   0  0  0  0  0  0  0  0  0  0  0  0
   -0.3739   -1.3121   -0.2159 C   0  0  0  0  0  0  0  0  0  0  0  0
   -2.3893   -0.9344    1.5147 H   0  0  0  0  0  0  0  0  0  0  0  0
   -2.0783   -0.7309   -1.3175 H   0  0  0  0  0  0  0  0  0  0  0  0
   -1.9000    1.0118    1.1083 H   0  0  0  0  0  0  0  0  0  0  0  0
   -2.4343    1.3921   -0.5238 H   0  0  0  0  0  0  0  0  0  0  0  0
   -0.4438    2.2836   -1.0952 H   0  0  0  0  0  0  0  0  0  0  0  0
   -0.1323    2.3298    0.6382 H   0  0  0  0  0  0  0  0  0  0  0  0
    1.6667    1.3620   -1.0238 H   0  0  0  0  0  0  0  0  0  0  0  0
    2.4518    1.0047    1.2002 H   0  0  0  0  0  0  0  0  0  0  0  0
    0.9241    0.0687    1.6590 H   0  0  0  0  0  0  0  0  0  0  0  0
    2.9792   -0.5589   -0.5408 H   0  0  0  0  0  0  0  0  0  0  0  0
    2.0938   -1.7886    0.5534 H   0  0  0  0  0  0  0  0  0  0  0  0
    1.0208   -0.7503   -1.8501 H   0  0  0  0  0  0  0  0  0  0  0  0
   -0.1533   -1.5746    0.8344 H   0  0  0  0  0  0  0  0  0  0  0  0
   -0.4799   -2.2720   -0.7656 H   0  0  0  0  0  0  0  0  0  0  0  0
  1  2  1  0
  2  3  1  0
  3  4  1  0
  4  5  1  0
  5  6  1  0
  6  7  1  0
  7  8  1  0
  8  9  1  0
  9  2  1  0
  8  5  1  0
  1 10  1  0
  2 11  1  0
  3 12  1  0
  3 13  1  0
  4 14  1  0
  4 15  1  0
  5 16  1  0
  6 17  1  0
  6 18  1  0
  7 19  1  0
  7 20  1  0
  8 21  1  0
  9 22  1  0
  9 23  1  0
M  END
