
     RDKit          3D

 18 19  0  0  0  0  0  0  0  0999 V2000
   -3.0480   -0.1915    0.0653 O   0  0  0  0  0  0  0  0  0  0  0  0
   -1.7516   -0.1366   -0.4326 C   0  0  0  0  0  0  0  0  0  0  0  0
   -0.8545    0.8345    0.2774 C   0  0  0  0  0  0  0  0  0  0  0  0
   -0.6238   -0.6094    0.4024 C   0  0  0  0  0  0  0  0  0  0  0  0
    0.6277   -1.1840   -0.1586 C   0  0  0  0  0  0  0  0  0  0  0  0
    1.4196   -0.3046   -1.0442 C   0  0  0  0  0  0  0  0  0  0  0  0
    1.9816    0.9771   -0.5570 C   0  0  0  0  0  0  0  0  0  0  0  0
    2.8321   -0.2463   -0.6285 O   0  0  0  0  0  0  0  0  0  0  0  0
   -3.6428    0.4144   -0.4567 H   0  0  0  0  0  0  0  0  0  0  0  0
   -1.7191   -0.2233   -1.5426 H   0  0  0  0  0  0  0  0  0  0  0  0
   -0.3438    1.5140   -0.4245 H   0  0  0  0  0  0  0  0  0  0  0  0
   -1.2681    1.4004    1.1510 H   0  0  0  0  0  0  0  0  0  0  0  0
   -0.9655   -1.0398    1.3967 H   0  0  0  0  0  0  0  0  0  0  0  0
    1.2759   -1.4851    0.7216 H   0  0  0  0  0  0  0  0  0  0  0  0
    0.4489   -2.1807   -0.6586 H   0  0  0  0  0  0  0  0  0  0  0  0
    1.4279   -0.4659   -2.1489 H   0  0  0  0  0  0  0  0  0  0  0  0
    2.3368    1.7462   -1.2344 H   0  0  0  0  0  0  0  0  0  0  0  0
    1.8666    1.1807    0.5405 H   0  0  0  0  0  0  0  0  0  0  0  0
  1  2  1  0
  2  3  1  0
  3  4  1  0
  4  5  1  0
  5  6  1  0
  6  7  1  0
  7  8  1  0
  4  2  1  0
  8  6  1  0
  1  9  1  0
  2 10  1  0
  3 11  1  0
  3 12  1  0
  4 13  1  0
  5 14  1  0
  5 15  1  0
  6 16  1  0
  7 17  1  0
  7 18  1  0
M  END
