
     RDKit          3D

 21 22  0  0  0  0  0  0  0  0999 V2000
    2.9593    0.3246   -0.6473 O   0  0  0  0  0  0  0  0  0  0  0  0
    1.7990    0.1775    0.0523 C   0  0  0  0  0  0  0  0  0  0  0  0
    1.0858   -1.1485   -0.2505 C   0  0  0  0  0  0  0  0  0  0  0  0
   -0.2104   -0.9099    0.5311 C   0  0  0  0  0  0  0  0  0  0  0  0
   -1.4625   -1.2240   -0.2127 C   0  0  0  0  0  0  0  0  0  0  0  0
   -1.6824    0.2269   -0.5116 C   0  0  0  0  0  0  0  0  0  0  0  0
   -2.8795    0.7674   -0.0512 O   0  0  0  0  0  0  0  0  0  0  0  0
   -0.4907    0.5696    0.3309 C   0  0  0  0  0  0  0  0  0  0  0  0
    0.6932    1.1299   -0.4223 C   0  0  0  0  0  0  0  0  0  0  0  0
    3.1736    1.3007   -0.6816 H   0  0  0  0  0  0  0  0  0  0  0  0
    1.8688    0.3159    1.1366 H   0  0  0  0  0  0  0  0  0  0  0  0
    0.8735   -1.2044   -1.3306 H   0  0  0  0  0  0  0  0  0  0  0  0
    1.6759   -1.9660    0.1546 H   0  0  0  0  0  0  0  0  0  0  0  0
   -0.1439   -1.2332    1.5818 H   0  0  0  0  0  0  0  0  0  0  0  0
   -1.4046   -1.9136   -1.0576 H   0  0  0  0  0  0  0  0  0  0  0  0
   -2.2649   -1.5967    0.4908 H   0  0  0  0  0  0  0  0  0  0  0  0
   -1.5849    0.4738   -1.6048 H   0  0  0  0  0  0  0  0  0  0  0  0
   -2.8279    1.7509   -0.2616 H   0  0  0  0  0  0  0  0  0  0  0  0
   -0.6820    1.0511    1.2986 H   0  0  0  0  0  0  0  0  0  0  0  0
    0.9522    2.1477   -0.1496 H   0  0  0  0  0  0  0  0  0  0  0  0
    0.5523    0.9603   -1.5085 H   0  0  0  0  0  0  0  0  0  0  0  0
  1  2  1  0
  2  3  1  0
  3  4  1  0
  4  5  1  0
  5  6  1  0
  6  7  1  0
  6  8  1  0
  8  9  1  0
  9  2  1  0
  8  4  1  0
  1 10  1  0
  2 11  1  0
  3 12  1  0
  3 13  1  0
  4 14  1  0
  5 15  1  0
  5 16  1  0
  6 17  1  0
  7 18  1  0
  8 19  1  0
  9 20  1  0
  9 21  1  0
M  END
