
     RDKit          3D

 17 19  0  0  0  0  0  0  0  0999 V2000
    1.2134    1.6817    0.4761 O   0  0  0  0  0  0  0  0  0  0  0  0
    1.2420    0.7403   -0.5338 C   0  0  0  0  0  0  0  0  0  0  0  0
    1.4632   -0.6721   -0.0075 C   0  0  0  0  0  0  0  0  0  0  0  0
    0.1008   -1.1144   -0.4854 C   0  0  0  0  0  0  0  0  0  0  0  0
   -0.9797   -1.3479    0.4670 C   0  0  0  0  0  0  0  0  0  0  0  0
   -1.7699   -0.3159    0.6378 C   0  0  0  0  0  0  0  0  0  0  0  0
   -1.3286    0.8096   -0.2012 C   0  0  0  0  0  0  0  0  0  0  0  0
   -0.1422    0.2976   -0.9525 C   0  0  0  0  0  0  0  0  0  0  0  0
   -0.2527   -0.7787   -1.7977 O   0  0  0  0  0  0  0  0  0  0  0  0
    1.7719    1.4146    1.2508 H   0  0  0  0  0  0  0  0  0  0  0  0
    1.8727    1.0037   -1.3891 H   0  0  0  0  0  0  0  0  0  0  0  0
    2.3235   -1.1780   -0.4927 H   0  0  0  0  0  0  0  0  0  0  0  0
    1.4871   -0.7262    1.1088 H   0  0  0  0  0  0  0  0  0  0  0  0
   -1.1397   -2.3059    1.0116 H   0  0  0  0  0  0  0  0  0  0  0  0
   -2.6595   -0.2674    1.3166 H   0  0  0  0  0  0  0  0  0  0  0  0
   -1.0612    1.6453    0.4909 H   0  0  0  0  0  0  0  0  0  0  0  0
   -2.1412    1.1136   -0.8997 H   0  0  0  0  0  0  0  0  0  0  0  0
  1  2  1  0
  2  3  1  0
  3  4  1  0
  4  5  1  0
  5  6  2  0
  6  7  1  0
  7  8  1  0
  8  9  1  0
  8  2  1  0
  8  4  1  0
  9  4  1  0
  1 10  1  0
  2 11  1  0
  3 12  1  0
  3 13  1  0
  5 14  1  0
  6 15  1  0
  7 16  1  0
  7 17  1  0
M  END
