
     RDKit          3D

 21 22  0  0  0  0  0  0  0  0999 V2000
    2.7598   -0.2366    0.2779 O   0  0  0  0  0  0  0  0  0  0  0  0
    1.5142   -0.2404   -0.3712 C   0  0  0  0  0  0  0  0  0  0  0  0
    0.8187   -1.5665   -0.0844 C   0  0  0  0  0  0  0  0  0  0  0  0
   -0.2819   -0.8031    0.5795 C   0  0  0  0  0  0  0  0  0  0  0  0
   -1.5247   -0.7807   -0.3128 C   0  0  0  0  0  0  0  0  0  0  0  0
   -1.8731    0.7122   -0.2121 C   0  0  0  0  0  0  0  0  0  0  0  0
   -0.5014    1.3148   -0.5230 C   0  0  0  0  0  0  0  0  0  0  0  0
    0.4240    0.5039    0.3474 C   0  0  0  0  0  0  0  0  0  0  0  0
    0.7807    1.1082    1.5399 O   0  0  0  0  0  0  0  0  0  0  0  0
    2.8209    0.4919    0.9301 H   0  0  0  0  0  0  0  0  0  0  0  0
    1.6075   -0.0607   -1.4508 H   0  0  0  0  0  0  0  0  0  0  0  0
    0.5243   -2.1108   -1.0175 H   0  0  0  0  0  0  0  0  0  0  0  0
    1.3372   -2.2203    0.6303 H   0  0  0  0  0  0  0  0  0  0  0  0
   -0.4908   -1.0225    1.6293 H   0  0  0  0  0  0  0  0  0  0  0  0
   -2.3321   -1.4078    0.0857 H   0  0  0  0  0  0  0  0  0  0  0  0
   -1.2700   -0.9712   -1.3663 H   0  0  0  0  0  0  0  0  0  0  0  0
   -2.1676    0.8759    0.8362 H   0  0  0  0  0  0  0  0  0  0  0  0
   -2.6289    0.9983   -0.9529 H   0  0  0  0  0  0  0  0  0  0  0  0
   -0.3397    1.1619   -1.6024 H   0  0  0  0  0  0  0  0  0  0  0  0
   -0.5431    2.3601   -0.2057 H   0  0  0  0  0  0  0  0  0  0  0  0
    1.3660    1.8933    1.4218 H   0  0  0  0  0  0  0  0  0  0  0  0
  1  2  1  0
  2  3  1  0
  3  4  1  0
  4  5  1  0
  5  6  1  0
  6  7  1  0
  7  8  1  0
  8  9  1  0
  8  2  1  0
  8  4  1  0
  1 10  1  0
  2 11  1  0
  3 12  1  0
  3 13  1  0
  4 14  1  0
  5 15  1  0
  5 16  1  0
  6 17  1  0
  6 18  1  0
  7 19  1  0
  7 20  1  0
  9 21  1  0
M  END
