
     RDKit          3D

 17 20  0  0  0  0  0  0  0  0999 V2000
    2.0369   -0.8841    1.4307 O   0  0  0  0  0  0  0  0  0  0  0  0
    1.4711   -0.4493    0.2592 C   0  0  0  0  0  0  0  0  0  0  0  0
    0.1294   -1.0022   -0.1045 C   0  0  0  0  0  0  0  0  0  0  0  0
   -0.0479    0.2642   -0.9042 C   0  0  0  0  0  0  0  0  0  0  0  0
   -1.5087    0.5951   -0.8424 C   0  0  0  0  0  0  0  0  0  0  0  0
   -2.4153   -0.3595   -0.4624 O   0  0  0  0  0  0  0  0  0  0  0  0
   -1.7888    0.2433    0.6300 C   0  0  0  0  0  0  0  0  0  0  0  0
   -0.4168   -0.2042    1.0404 C   0  0  0  0  0  0  0  0  0  0  0  0
    0.5458    0.7364    0.3805 C   0  0  0  0  0  0  0  0  0  0  0  0
    3.0231   -0.6701    1.3693 H   0  0  0  0  0  0  0  0  0  0  0  0
    2.1559   -0.4390   -0.6109 H   0  0  0  0  0  0  0  0  0  0  0  0
   -0.1089   -1.9306   -0.3831 H   0  0  0  0  0  0  0  0  0  0  0  0
    0.4876    0.3777   -1.8218 H   0  0  0  0  0  0  0  0  0  0  0  0
   -1.7954    1.6151   -1.1028 H   0  0  0  0  0  0  0  0  0  0  0  0
   -2.3181    0.9683    1.2437 H   0  0  0  0  0  0  0  0  0  0  0  0
   -0.2403   -0.5261    2.0446 H   0  0  0  0  0  0  0  0  0  0  0  0
    0.7901    1.6651    0.6567 H   0  0  0  0  0  0  0  0  0  0  0  0
  1  2  1  0
  2  3  1  0
  3  4  1  0
  4  5  1  0
  5  6  1  0
  6  7  1  0
  7  8  1  0
  8  9  1  0
  9  2  1  0
  8  3  1  0
  9  4  1  0
  7  5  1  0
  1 10  1  0
  2 11  1  0
  3 12  1  0
  4 13  1  0
  5 14  1  0
  7 15  1  0
  8 16  1  0
  9 17  1  0
M  END
