
     RDKit          3D

 15 16  0  0  0  0  0  0  0  0999 V2000
    2.6755   -0.3582   -0.0237 O   0  0  0  0  0  0  0  0  0  0  0  0
    1.3311   -0.6978   -0.1687 C   0  0  0  0  0  0  0  0  0  0  0  0
    0.4102    0.4025   -0.4478 C   0  0  0  0  0  0  0  0  0  0  0  0
   -1.0126    0.1255   -0.9022 C   0  0  0  0  0  0  0  0  0  0  0  0
   -1.6913    0.0979    0.4749 C   0  0  0  0  0  0  0  0  0  0  0  0
   -0.8279   -0.8323    1.0968 O   0  0  0  0  0  0  0  0  0  0  0  0
    0.4173   -0.2912    0.9158 C   0  0  0  0  0  0  0  0  0  0  0  0
    2.8168    0.6294   -0.1623 H   0  0  0  0  0  0  0  0  0  0  0  0
    1.1186   -1.6662   -0.6648 H   0  0  0  0  0  0  0  0  0  0  0  0
    0.7098    1.4801   -0.3830 H   0  0  0  0  0  0  0  0  0  0  0  0
   -1.0799   -0.9028   -1.3100 H   0  0  0  0  0  0  0  0  0  0  0  0
   -1.4205    0.8899   -1.5523 H   0  0  0  0  0  0  0  0  0  0  0  0
   -2.7194   -0.2438    0.4278 H   0  0  0  0  0  0  0  0  0  0  0  0
   -1.5298    1.0916    0.9092 H   0  0  0  0  0  0  0  0  0  0  0  0
    0.8022    0.2752    1.7901 H   0  0  0  0  0  0  0  0  0  0  0  0
  1  2  1  0
  2  3  1  0
  3  4  1  0
  4  5  1  0
  5  6  1  0
  6  7  1  0
  7  2  1  0
  7  3  1  0
  1  8  1  0
  2  9  1  0
  3 10  1  0
  4 11  1  0
  4 12  1  0
  5 13  1  0
  5 14  1  0
  7 15  1  0
M  END
