
     RDKit          3D

 17 19  0  0  0  0  0  0  0  0999 V2000
    1.7765   -1.5477   -0.0224 O   0  0  0  0  0  0  0  0  0  0  0  0
    1.1392   -0.3737    0.4356 C   0  0  0  0  0  0  0  0  0  0  0  0
    1.3682    0.7910   -0.4477 C   0  0  0  0  0  0  0  0  0  0  0  0
    0.2105    1.1637   -1.0542 O   0  0  0  0  0  0  0  0  0  0  0  0
   -0.8469    0.4863   -0.5610 C   0  0  0  0  0  0  0  0  0  0  0  0
   -1.7030    1.0106    0.5592 C   0  0  0  0  0  0  0  0  0  0  0  0
   -1.0005    0.1956    1.4285 O   0  0  0  0  0  0  0  0  0  0  0  0
   -0.3543   -0.5190    0.4593 C   0  0  0  0  0  0  0  0  0  0  0  0
   -0.9901   -1.0183   -0.7644 C   0  0  0  0  0  0  0  0  0  0  0  0
    1.7486   -2.1959    0.7396 H   0  0  0  0  0  0  0  0  0  0  0  0
    1.5349   -0.1922    1.4432 H   0  0  0  0  0  0  0  0  0  0  0  0
    1.7684    1.6916    0.1026 H   0  0  0  0  0  0  0  0  0  0  0  0
    2.1976    0.5225   -1.1631 H   0  0  0  0  0  0  0  0  0  0  0  0
   -2.7546    0.6232    0.4447 H   0  0  0  0  0  0  0  0  0  0  0  0
   -1.6905    2.0814    0.7441 H   0  0  0  0  0  0  0  0  0  0  0  0
   -2.0585   -1.3326   -0.7803 H   0  0  0  0  0  0  0  0  0  0  0  0
   -0.3455   -1.3864   -1.5638 H   0  0  0  0  0  0  0  0  0  0  0  0
  1  2  1  0
  2  3  1  0
  3  4  1  0
  4  5  1  0
  5  6  1  0
  6  7  1  0
  7  8  1  0
  8  9  1  0
  8  2  1  0
  8  5  1  0
  9  5  1  0
  1 10  1  0
  2 11  1  0
  3 12  1  0
  3 13  1  0
  6 14  1  0
  6 15  1  0
  9 16  1  0
  9 17  1  0
M  END
