
     RDKit          3D

 23 24  0  0  0  0  0  0  0  0999 V2000
    3.2580    0.3336   -0.9209 O   0  0  0  0  0  0  0  0  0  0  0  0
    2.6308   -0.0587    0.2560 C   0  0  0  0  0  0  0  0  0  0  0  0
    1.3367    0.7332    0.4791 C   0  0  0  0  0  0  0  0  0  0  0  0
    0.6223   -0.3668   -0.2727 C   0  0  0  0  0  0  0  0  0  0  0  0
   -0.7013   -0.7390    0.3377 C   0  0  0  0  0  0  0  0  0  0  0  0
   -1.5684    0.4725    0.3330 C   0  0  0  0  0  0  0  0  0  0  0  0
   -2.9448    0.4822    0.8562 C   0  0  0  0  0  0  0  0  0  0  0  0
   -2.7670    0.3713   -0.6189 C   0  0  0  0  0  0  0  0  0  0  0  0
    1.7637   -1.3098    0.0570 C   0  0  0  0  0  0  0  0  0  0  0  0
    3.7440    1.1780   -0.7167 H   0  0  0  0  0  0  0  0  0  0  0  0
    3.2631   -0.0975    1.1448 H   0  0  0  0  0  0  0  0  0  0  0  0
    1.0835    0.7320    1.5597 H   0  0  0  0  0  0  0  0  0  0  0  0
    1.3011    1.7070   -0.0065 H   0  0  0  0  0  0  0  0  0  0  0  0
    0.6157   -0.1693   -1.3512 H   0  0  0  0  0  0  0  0  0  0  0  0
   -0.5615   -1.0801    1.3837 H   0  0  0  0  0  0  0  0  0  0  0  0
   -1.1175   -1.5856   -0.2456 H   0  0  0  0  0  0  0  0  0  0  0  0
   -1.0119    1.4437    0.3565 H   0  0  0  0  0  0  0  0  0  0  0  0
   -3.3848   -0.3756    1.3930 H   0  0  0  0  0  0  0  0  0  0  0  0
   -3.3400    1.4607    1.1984 H   0  0  0  0  0  0  0  0  0  0  0  0
   -3.0086   -0.5940   -1.0603 H   0  0  0  0  0  0  0  0  0  0  0  0
   -2.9234    1.2482   -1.2761 H   0  0  0  0  0  0  0  0  0  0  0  0
    1.5892   -1.8636    0.9929 H   0  0  0  0  0  0  0  0  0  0  0  0
    2.1209   -1.9224   -0.7964 H   0  0  0  0  0  0  0  0  0  0  0  0
  1  2  1  0
  2  3  1  0
  3  4  1  0
  4  5  1  0
  5  6  1  0
  6  7  1  0
  7  8  1  0
  4  9  1  0
  9  2  1  0
  8  6  1  0
  1 10  1  0
  2 11  1  0
  3 12  1  0
  3 13  1  0
  4 14  1  0
  5 15  1  0
  5 16  1  0
  6 17  1  0
  7 18  1  0
  7 19  1  0
  8 20  1  0
  8 21  1  0
  9 22  1  0
  9 23  1  0
M  END
