
     RDKit          3D

 17 19  0  0  0  0  0  0  0  0999 V2000
   -0.2457   -1.4304   -1.4739 O   0  0  0  0  0  0  0  0  0  0  0  0
    0.0342   -1.1240   -0.1375 C   0  0  0  0  0  0  0  0  0  0  0  0
   -1.2752   -0.6972    0.4961 C   0  0  0  0  0  0  0  0  0  0  0  0
   -1.5088    0.7195    0.1096 C   0  0  0  0  0  0  0  0  0  0  0  0
   -0.8128    1.7618    0.6726 O   0  0  0  0  0  0  0  0  0  0  0  0
   -0.2479    1.1803   -0.4728 C   0  0  0  0  0  0  0  0  0  0  0  0
    0.8107    0.1659   -0.1361 C   0  0  0  0  0  0  0  0  0  0  0  0
    1.8173    0.4640    0.7960 C   0  0  0  0  0  0  0  0  0  0  0  0
    2.0729    0.2460   -0.6407 O   0  0  0  0  0  0  0  0  0  0  0  0
    0.5370   -1.1163   -2.0155 H   0  0  0  0  0  0  0  0  0  0  0  0
    0.5420   -1.9249    0.3937 H   0  0  0  0  0  0  0  0  0  0  0  0
   -1.2990   -0.8592    1.5864 H   0  0  0  0  0  0  0  0  0  0  0  0
   -2.0826   -1.3190    0.0633 H   0  0  0  0  0  0  0  0  0  0  0  0
   -2.5023    0.9984   -0.2867 H   0  0  0  0  0  0  0  0  0  0  0  0
   -0.2713    1.6955   -1.4266 H   0  0  0  0  0  0  0  0  0  0  0  0
    2.3067   -0.2713    1.4520 H   0  0  0  0  0  0  0  0  0  0  0  0
    2.1248    1.5109    1.0201 H   0  0  0  0  0  0  0  0  0  0  0  0
  1  2  1  0
  2  3  1  0
  3  4  1  0
  4  5  1  0
  5  6  1  0
  6  7  1  0
  7  8  1  0
  8  9  1  0
  7  2  1  0
  6  4  1  0
  9  7  1  0
  1 10  1  0
  2 11  1  0
  3 12  1  0
  3 13  1  0
  4 14  1  0
  6 15  1  0
  8 16  1  0
  8 17  1  0
M  END
