
     RDKit          3D

 16 17  0  0  0  0  0  0  0  0999 V2000
    2.8825    0.3207   -0.4508 O   0  0  0  0  0  0  0  0  0  0  0  0
    1.5597    0.2906   -0.8710 C   0  0  0  0  0  0  0  0  0  0  0  0
    0.5607    0.6877    0.1524 C   0  0  0  0  0  0  0  0  0  0  0  0
   -0.6027    1.2656   -0.3587 O   0  0  0  0  0  0  0  0  0  0  0  0
   -1.6724    0.6578    0.2817 C   0  0  0  0  0  0  0  0  0  0  0  0
   -1.4786   -0.8409    0.1326 C   0  0  0  0  0  0  0  0  0  0  0  0
   -0.5098   -1.1252   -0.8587 O   0  0  0  0  0  0  0  0  0  0  0  0
    0.7103   -0.7624   -0.3176 C   0  0  0  0  0  0  0  0  0  0  0  0
    2.9777    0.0504    0.5025 H   0  0  0  0  0  0  0  0  0  0  0  0
    1.4164    0.6362   -1.9127 H   0  0  0  0  0  0  0  0  0  0  0  0
    0.8104    0.8272    1.2092 H   0  0  0  0  0  0  0  0  0  0  0  0
   -2.5931    1.0029   -0.2347 H   0  0  0  0  0  0  0  0  0  0  0  0
   -1.6509    0.9764    1.3505 H   0  0  0  0  0  0  0  0  0  0  0  0
   -2.4466   -1.2800   -0.1206 H   0  0  0  0  0  0  0  0  0  0  0  0
   -1.0757   -1.2014    1.0957 H   0  0  0  0  0  0  0  0  0  0  0  0
    1.1122   -1.5056    0.4002 H   0  0  0  0  0  0  0  0  0  0  0  0
  1  2  1  0
  2  3  1  0
  3  4  1  0
  4  5  1  0
  5  6  1  0
  6  7  1  0
  7  8  1  0
  8  2  1  0
  8  3  1  0
  1  9  1  0
  2 10  1  0
  3 11  1  0
  5 12  1  0
  5 13  1  0
  6 14  1  0
  6 15  1  0
  8 16  1  0
M  END
