
     RDKit          3D

 17 19  0  0  0  0  0  0  0  0999 V2000
   -2.1197   -1.1735   -0.0719 O   0  0  0  0  0  0  0  0  0  0  0  0
   -1.7474    0.1151    0.2515 C   0  0  0  0  0  0  0  0  0  0  0  0
   -0.4442    0.2643    0.9357 C   0  0  0  0  0  0  0  0  0  0  0  0
    0.6185   -0.7300    0.6355 C   0  0  0  0  0  0  0  0  0  0  0  0
    1.9069    0.0412    0.3555 C   0  0  0  0  0  0  0  0  0  0  0  0
    1.5936    0.6669   -0.8458 O   0  0  0  0  0  0  0  0  0  0  0  0
    0.3665    0.1538   -1.2664 C   0  0  0  0  0  0  0  0  0  0  0  0
    0.3173   -1.1368   -0.6867 O   0  0  0  0  0  0  0  0  0  0  0  0
   -0.7071    0.8524   -0.4897 C   0  0  0  0  0  0  0  0  0  0  0  0
   -1.9816   -1.4285   -0.9981 H   0  0  0  0  0  0  0  0  0  0  0  0
   -2.5774    0.7331    0.6500 H   0  0  0  0  0  0  0  0  0  0  0  0
   -0.2606    1.0384    1.6886 H   0  0  0  0  0  0  0  0  0  0  0  0
    0.7371   -1.5472    1.3215 H   0  0  0  0  0  0  0  0  0  0  0  0
    2.7588   -0.6604    0.2475 H   0  0  0  0  0  0  0  0  0  0  0  0
    2.0442    0.7390    1.1943 H   0  0  0  0  0  0  0  0  0  0  0  0
    0.2331    0.1381   -2.3401 H   0  0  0  0  0  0  0  0  0  0  0  0
   -0.7380    1.9342   -0.5815 H   0  0  0  0  0  0  0  0  0  0  0  0
  1  2  1  0
  2  3  1  0
  3  4  1  0
  4  5  1  0
  5  6  1  0
  6  7  1  0
  7  8  1  0
  7  9  1  0
  9  2  1  0
  9  3  1  0
  8  4  1  0
  1 10  1  0
  2 11  1  0
  3 12  1  0
  4 13  1  0
  5 14  1  0
  5 15  1  0
  7 16  1  0
  9 17  1  0
M  END
