
     RDKit          3D

 18 19  0  0  0  0  0  0  0  0999 V2000
    1.1896    1.3223   -1.2375 O   0  0  0  0  0  0  0  0  0  0  0  0
    1.1582    0.6115   -0.0485 C   0  0  0  0  0  0  0  0  0  0  0  0
    2.0093   -0.6340   -0.0221 C   0  0  0  0  0  0  0  0  0  0  0  0
    0.8937   -1.4253    0.2367 O   0  0  0  0  0  0  0  0  0  0  0  0
    0.0507   -0.3649    0.1158 C   0  0  0  0  0  0  0  0  0  0  0  0
   -0.9454   -0.1148    1.1953 C   0  0  0  0  0  0  0  0  0  0  0  0
   -2.0480   -0.0407    0.1543 C   0  0  0  0  0  0  0  0  0  0  0  0
   -1.0194   -0.4010   -0.8991 C   0  0  0  0  0  0  0  0  0  0  0  0
    1.5156    2.2444   -1.0341 H   0  0  0  0  0  0  0  0  0  0  0  0
    1.2855    1.2433    0.8645 H   0  0  0  0  0  0  0  0  0  0  0  0
    2.4311   -0.8450   -1.0367 H   0  0  0  0  0  0  0  0  0  0  0  0
    2.7961   -0.6340    0.7410 H   0  0  0  0  0  0  0  0  0  0  0  0
   -0.7468    0.8913    1.6612 H   0  0  0  0  0  0  0  0  0  0  0  0
   -1.0304   -0.9502    1.9004 H   0  0  0  0  0  0  0  0  0  0  0  0
   -2.4939    0.9627    0.0586 H   0  0  0  0  0  0  0  0  0  0  0  0
   -2.8078   -0.8058    0.3533 H   0  0  0  0  0  0  0  0  0  0  0  0
   -1.0266    0.3654   -1.6905 H   0  0  0  0  0  0  0  0  0  0  0  0
   -1.2114   -1.4250   -1.3127 H   0  0  0  0  0  0  0  0  0  0  0  0
  1  2  1  0
  2  3  1  0
  3  4  1  0
  4  5  1  0
  5  6  1  0
  6  7  1  0
  7  8  1  0
  5  2  1  0
  8  5  1  0
  1  9  1  0
  2 10  1  0
  3 11  1  0
  3 12  1  0
  6 13  1  0
  6 14  1  0
  7 15  1  0
  7 16  1  0
  8 17  1  0
  8 18  1  0
M  END
