
     RDKit          3D

 18 18  0  0  0  0  0  0  0  0999 V2000
    2.0068    0.0396    0.9226 O   0  0  0  0  0  0  0  0  0  0  0  0
    1.4638    0.1679   -0.3679 C   0  0  0  0  0  0  0  0  0  0  0  0
    0.7137   -1.1193   -0.6469 C   0  0  0  0  0  0  0  0  0  0  0  0
   -0.1375   -1.3897    0.4090 O   0  0  0  0  0  0  0  0  0  0  0  0
   -1.3825   -0.8172    0.2839 C   0  0  0  0  0  0  0  0  0  0  0  0
   -1.4365    0.6323    0.6320 C   0  0  0  0  0  0  0  0  0  0  0  0
   -0.2052    1.1999    0.8990 O   0  0  0  0  0  0  0  0  0  0  0  0
    0.4928    1.3381   -0.3142 C   0  0  0  0  0  0  0  0  0  0  0  0
    1.4779   -0.6181    1.4530 H   0  0  0  0  0  0  0  0  0  0  0  0
    2.2630    0.3337   -1.1166 H   0  0  0  0  0  0  0  0  0  0  0  0
    0.2432   -1.1492   -1.6298 H   0  0  0  0  0  0  0  0  0  0  0  0
    1.4959   -1.9326   -0.6358 H   0  0  0  0  0  0  0  0  0  0  0  0
   -1.8529   -1.0022   -0.7212 H   0  0  0  0  0  0  0  0  0  0  0  0
   -2.0582   -1.3549    1.0070 H   0  0  0  0  0  0  0  0  0  0  0  0
   -2.0870    0.8441    1.5154 H   0  0  0  0  0  0  0  0  0  0  0  0
   -1.8745    1.2125   -0.2260 H   0  0  0  0  0  0  0  0  0  0  0  0
   -0.2164    1.3345   -1.1639 H   0  0  0  0  0  0  0  0  0  0  0  0
    1.0936    2.2807   -0.2996 H   0  0  0  0  0  0  0  0  0  0  0  0
  1  2  1  0
  2  3  1  0
  3  4  1  0
  4  5  1  0
  5  6  1  0
  6  7  1  0
  7  8  1  0
  8  2  1  0
  1  9  1  0
  2 10  1  0
  3 11  1  0
  3 12  1  0
  5 13  1  0
  5 14  1  0
  6 15  1  0
  6 16  1  0
  8 17  1  0
  8 18  1  0
M  END
