
     RDKit          3D

 19 21  0  0  0  0  0  0  0  0999 V2000
    0.6851    2.3537   -0.1953 O   0  0  0  0  0  0  0  0  0  0  0  0
    1.0414    1.0835    0.1973 C   0  0  0  0  0  0  0  0  0  0  0  0
    0.0651    0.0884    0.6814 C   0  0  0  0  0  0  0  0  0  0  0  0
   -1.4041    0.2304    0.4991 C   0  0  0  0  0  0  0  0  0  0  0  0
   -1.5838    0.3766   -0.9752 C   0  0  0  0  0  0  0  0  0  0  0  0
   -0.3839    0.2430   -1.5991 O   0  0  0  0  0  0  0  0  0  0  0  0
    0.5999   -0.0202   -0.6936 C   0  0  0  0  0  0  0  0  0  0  0  0
    1.0325   -1.4368   -0.3923 C   0  0  0  0  0  0  0  0  0  0  0  0
    0.6131   -1.2543    1.0632 C   0  0  0  0  0  0  0  0  0  0  0  0
    1.4743    2.9342   -0.2459 H   0  0  0  0  0  0  0  0  0  0  0  0
    2.0756    0.9651    0.5992 H   0  0  0  0  0  0  0  0  0  0  0  0
   -1.8671    1.0263    1.0996 H   0  0  0  0  0  0  0  0  0  0  0  0
   -1.8950   -0.7238    0.8197 H   0  0  0  0  0  0  0  0  0  0  0  0
   -2.2764   -0.4043   -1.3839 H   0  0  0  0  0  0  0  0  0  0  0  0
   -2.0752    1.3586   -1.1926 H   0  0  0  0  0  0  0  0  0  0  0  0
    2.1450   -1.4983   -0.4980 H   0  0  0  0  0  0  0  0  0  0  0  0
    0.4566   -2.2106   -0.9120 H   0  0  0  0  0  0  0  0  0  0  0  0
    1.4858   -1.1705    1.7289 H   0  0  0  0  0  0  0  0  0  0  0  0
   -0.1889   -1.9413    1.3996 H   0  0  0  0  0  0  0  0  0  0  0  0
  1  2  1  0
  2  3  1  0
  3  4  1  0
  4  5  1  0
  5  6  1  0
  6  7  1  0
  7  8  1  0
  8  9  1  0
  7  2  1  0
  7  3  1  0
  9  3  1  0
  1 10  1  0
  2 11  1  0
  4 12  1  0
  4 13  1  0
  5 14  1  0
  5 15  1  0
  8 16  1  0
  8 17  1  0
  9 18  1  0
  9 19  1  0
M  END
