
     RDKit          3D

 14 14  0  0  0  0  0  0  0  0999 V2000
    2.0806    0.0001    0.7410 O   0  0  0  0  0  0  0  0  0  0  0  0
    0.9193   -0.2638    0.0600 C   0  0  0  0  0  0  0  0  0  0  0  0
    0.4399    0.9147   -0.7441 C   0  0  0  0  0  0  0  0  0  0  0  0
   -0.8830    0.8671   -0.8063 C   0  0  0  0  0  0  0  0  0  0  0  0
   -1.3930   -0.3157   -0.0690 C   0  0  0  0  0  0  0  0  0  0  0  0
   -0.2721   -0.4826    0.9697 C   0  0  0  0  0  0  0  0  0  0  0  0
    2.8385   -0.2602    0.1505 H   0  0  0  0  0  0  0  0  0  0  0  0
    0.9801   -1.1807   -0.5789 H   0  0  0  0  0  0  0  0  0  0  0  0
    1.1408    1.6287   -1.1614 H   0  0  0  0  0  0  0  0  0  0  0  0
   -1.4898    1.5853   -1.3186 H   0  0  0  0  0  0  0  0  0  0  0  0
   -1.3014   -1.1940   -0.7375 H   0  0  0  0  0  0  0  0  0  0  0  0
   -2.3636   -0.1774    0.3885 H   0  0  0  0  0  0  0  0  0  0  0  0
   -0.2847   -1.4757    1.4244 H   0  0  0  0  0  0  0  0  0  0  0  0
   -0.4117    0.3541    1.6816 H   0  0  0  0  0  0  0  0  0  0  0  0
  1  2  1  0
  2  3  1  0
  3  4  2  0
  4  5  1  0
  5  6  1  0
  6  2  1  0
  1  7  1  0
  2  8  1  0
  3  9  1  0
  4 10  1  0
  5 11  1  0
  5 12  1  0
  6 13  1  0
  6 14  1  0
M  END
