
     RDKit          3D

 19 20  0  0  0  0  0  0  0  0999 V2000
    2.4921   -0.4690   -0.6898 O   0  0  0  0  0  0  0  0  0  0  0  0
    1.3806   -0.1391    0.0916 C   0  0  0  0  0  0  0  0  0  0  0  0
    0.9976    1.2889   -0.3219 C   0  0  0  0  0  0  0  0  0  0  0  0
   -0.0974    1.6079    0.4994 O   0  0  0  0  0  0  0  0  0  0  0  0
   -1.1996    0.9950   -0.0239 C   0  0  0  0  0  0  0  0  0  0  0  0
   -1.0899   -0.4730   -0.2221 C   0  0  0  0  0  0  0  0  0  0  0  0
   -2.0524   -1.0236   -1.0785 O   0  0  0  0  0  0  0  0  0  0  0  0
   -0.7498   -1.3472    0.9690 C   0  0  0  0  0  0  0  0  0  0  0  0
    0.2309   -1.0693   -0.0909 C   0  0  0  0  0  0  0  0  0  0  0  0
    3.1830    0.2305   -0.4619 H   0  0  0  0  0  0  0  0  0  0  0  0
    1.6238   -0.0742    1.1706 H   0  0  0  0  0  0  0  0  0  0  0  0
    1.8845    1.9172   -0.0911 H   0  0  0  0  0  0  0  0  0  0  0  0
    0.7496    1.3463   -1.3938 H   0  0  0  0  0  0  0  0  0  0  0  0
   -1.3996    1.4578   -1.0288 H   0  0  0  0  0  0  0  0  0  0  0  0
   -2.0608    1.2078    0.6652 H   0  0  0  0  0  0  0  0  0  0  0  0
   -2.3691   -0.3232   -1.6915 H   0  0  0  0  0  0  0  0  0  0  0  0
   -1.2138   -2.3695    1.0271 H   0  0  0  0  0  0  0  0  0  0  0  0
   -0.7867   -0.8087    1.9264 H   0  0  0  0  0  0  0  0  0  0  0  0
    0.4773   -1.9547   -0.7481 H   0  0  0  0  0  0  0  0  0  0  0  0
  1  2  1  0
  2  3  1  0
  3  4  1  0
  4  5  1  0
  5  6  1  0
  6  7  1  0
  6  8  1  0
  8  9  1  0
  9  2  1  0
  9  6  1  0
  1 10  1  0
  2 11  1  0
  3 12  1  0
  3 13  1  0
  5 14  1  0
  5 15  1  0
  7 16  1  0
  8 17  1  0
  8 18  1  0
  9 19  1  0
M  END
