
     RDKit          3D

 17 19  0  0  0  0  0  0  0  0999 V2000
    0.2905   -1.5757   -1.3671 O   0  0  0  0  0  0  0  0  0  0  0  0
    0.0194   -0.2535   -1.1286 C   0  0  0  0  0  0  0  0  0  0  0  0
   -1.2410   -0.1478   -0.2625 C   0  0  0  0  0  0  0  0  0  0  0  0
   -2.3974    0.3288   -0.8053 O   0  0  0  0  0  0  0  0  0  0  0  0
   -1.1338   -0.7077    1.0888 C   0  0  0  0  0  0  0  0  0  0  0  0
   -0.4469    0.5769    0.7473 C   0  0  0  0  0  0  0  0  0  0  0  0
    0.7836    0.4517   -0.0800 C   0  0  0  0  0  0  0  0  0  0  0  0
    2.0515    0.3055    0.3885 C   0  0  0  0  0  0  0  0  0  0  0  0
    1.5863    1.5323   -0.3276 O   0  0  0  0  0  0  0  0  0  0  0  0
    1.2154   -1.8456   -1.2825 H   0  0  0  0  0  0  0  0  0  0  0  0
   -0.0820    0.3748   -2.0473 H   0  0  0  0  0  0  0  0  0  0  0  0
   -2.7793    1.1228   -0.3748 H   0  0  0  0  0  0  0  0  0  0  0  0
   -1.9448   -0.6208    1.8150 H   0  0  0  0  0  0  0  0  0  0  0  0
   -0.4168   -1.5507    1.2945 H   0  0  0  0  0  0  0  0  0  0  0  0
   -0.7847    1.5374    1.1401 H   0  0  0  0  0  0  0  0  0  0  0  0
    2.3662    0.5479    1.4227 H   0  0  0  0  0  0  0  0  0  0  0  0
    2.9138   -0.0762   -0.2212 H   0  0  0  0  0  0  0  0  0  0  0  0
  1  2  1  0
  2  3  1  0
  3  4  1  0
  3  5  1  0
  5  6  1  0
  6  7  1  0
  7  8  1  0
  8  9  1  0
  7  2  1  0
  6  3  1  0
  9  7  1  0
  1 10  1  0
  2 11  1  0
  4 12  1  0
  5 13  1  0
  5 14  1  0
  6 15  1  0
  8 16  1  0
  8 17  1  0
M  END
