
     RDKit          3D

 21 22  0  0  0  0  0  0  0  0999 V2000
    1.7437    1.5771    0.1720 O   0  0  0  0  0  0  0  0  0  0  0  0
    1.2037    0.4739   -0.4959 C   0  0  0  0  0  0  0  0  0  0  0  0
    1.9886   -0.8142   -0.2137 C   0  0  0  0  0  0  0  0  0  0  0  0
    0.9385   -1.1425    0.8346 C   0  0  0  0  0  0  0  0  0  0  0  0
    0.0338   -0.1336    0.1885 C   0  0  0  0  0  0  0  0  0  0  0  0
   -0.7009    0.6944    1.1539 C   0  0  0  0  0  0  0  0  0  0  0  0
   -1.9114    0.9689    0.7073 C   0  0  0  0  0  0  0  0  0  0  0  0
   -2.0854    0.3346   -0.6184 C   0  0  0  0  0  0  0  0  0  0  0  0
   -1.0404   -0.7203   -0.7082 C   0  0  0  0  0  0  0  0  0  0  0  0
    2.0815    2.2694   -0.4413 H   0  0  0  0  0  0  0  0  0  0  0  0
    1.0234    0.6141   -1.5705 H   0  0  0  0  0  0  0  0  0  0  0  0
    2.9725   -0.6529    0.2516 H   0  0  0  0  0  0  0  0  0  0  0  0
    1.9804   -1.5210   -1.0502 H   0  0  0  0  0  0  0  0  0  0  0  0
    1.2500   -0.8678    1.8760 H   0  0  0  0  0  0  0  0  0  0  0  0
    0.5659   -2.1785    0.8226 H   0  0  0  0  0  0  0  0  0  0  0  0
   -0.2934    1.0300    2.1041 H   0  0  0  0  0  0  0  0  0  0  0  0
   -2.6821    1.5808    1.2418 H   0  0  0  0  0  0  0  0  0  0  0  0
   -3.1156   -0.0474   -0.7746 H   0  0  0  0  0  0  0  0  0  0  0  0
   -1.9070    1.0549   -1.4517 H   0  0  0  0  0  0  0  0  0  0  0  0
   -1.4113   -1.6595   -0.2795 H   0  0  0  0  0  0  0  0  0  0  0  0
   -0.6345   -0.8603   -1.7483 H   0  0  0  0  0  0  0  0  0  0  0  0
  1  2  1  0
  2  3  1  0
  3  4  1  0
  4  5  1  0
  5  6  1  0
  6  7  2  0
  7  8  1  0
  8  9  1  0
  5  2  1  0
  9  5  1  0
  1 10  1  0
  2 11  1  0
  3 12  1  0
  3 13  1  0
  4 14  1  0
  4 15  1  0
  6 16  1  0
  7 17  1  0
  8 18  1  0
  8 19  1  0
  9 20  1  0
  9 21  1  0
M  END
