
     RDKit          3D

 21 22  0  0  0  0  0  0  0  0999 V2000
    1.6531    1.4850    0.6374 O   0  0  0  0  0  0  0  0  0  0  0  0
    1.3909    0.2924    0.0088 C   0  0  0  0  0  0  0  0  0  0  0  0
    0.8499   -0.7183    0.9855 C   0  0  0  0  0  0  0  0  0  0  0  0
   -0.2422   -1.4848    0.2727 C   0  0  0  0  0  0  0  0  0  0  0  0
   -0.0500   -1.0914   -1.1807 C   0  0  0  0  0  0  0  0  0  0  0  0
    0.2195    0.4069   -0.9795 C   0  0  0  0  0  0  0  0  0  0  0  0
   -0.9099    1.1002   -0.3065 C   0  0  0  0  0  0  0  0  0  0  0  0
   -1.6478    0.3075    0.7021 C   0  0  0  0  0  0  0  0  0  0  0  0
   -1.5132   -1.0468    0.6302 O   0  0  0  0  0  0  0  0  0  0  0  0
    1.7566    2.2379   -0.0040 H   0  0  0  0  0  0  0  0  0  0  0  0
    2.2563   -0.1014   -0.5715 H   0  0  0  0  0  0  0  0  0  0  0  0
    1.7045   -1.4179    1.2137 H   0  0  0  0  0  0  0  0  0  0  0  0
    0.4885   -0.2082    1.9021 H   0  0  0  0  0  0  0  0  0  0  0  0
   -0.1876   -2.5635    0.4417 H   0  0  0  0  0  0  0  0  0  0  0  0
   -0.9203   -1.2783   -1.8044 H   0  0  0  0  0  0  0  0  0  0  0  0
    0.8917   -1.5266   -1.5119 H   0  0  0  0  0  0  0  0  0  0  0  0
    0.5055    0.8864   -1.9103 H   0  0  0  0  0  0  0  0  0  0  0  0
   -0.4797    2.0023    0.2193 H   0  0  0  0  0  0  0  0  0  0  0  0
   -1.5949    1.5452   -1.0791 H   0  0  0  0  0  0  0  0  0  0  0  0
   -1.4240    0.6318    1.7551 H   0  0  0  0  0  0  0  0  0  0  0  0
   -2.7468    0.5414    0.5793 H   0  0  0  0  0  0  0  0  0  0  0  0
  1  2  1  0
  2  3  1  0
  3  4  1  0
  4  5  1  0
  5  6  1  0
  6  7  1  0
  7  8  1  0
  8  9  1  0
  6  2  1  0
  9  4  1  0
  1 10  1  0
  2 11  1  0
  3 12  1  0
  3 13  1  0
  4 14  1  0
  5 15  1  0
  5 16  1  0
  6 17  1  0
  7 18  1  0
  7 19  1  0
  8 20  1  0
  8 21  1  0
M  END
