
     RDKit          3D

 16 18  0  0  0  0  0  0  0  0999 V2000
    2.0168    0.2292   -0.6991 O   0  0  0  0  0  0  0  0  0  0  0  0
    1.1940   -0.1691    0.3694 C   0  0  0  0  0  0  0  0  0  0  0  0
    0.3405    0.9831    0.8605 C   0  0  0  0  0  0  0  0  0  0  0  0
   -0.9240    0.9649    0.0263 C   0  0  0  0  0  0  0  0  0  0  0  0
   -1.6696   -0.3550    0.1547 C   0  0  0  0  0  0  0  0  0  0  0  0
   -0.9053   -1.4097    0.6018 O   0  0  0  0  0  0  0  0  0  0  0  0
    0.1493   -1.1016   -0.2520 C   0  0  0  0  0  0  0  0  0  0  0  0
   -0.7398   -0.1093   -0.9321 C   0  0  0  0  0  0  0  0  0  0  0  0
    2.4304   -0.6094   -1.0448 H   0  0  0  0  0  0  0  0  0  0  0  0
    1.7663   -0.6502    1.1588 H   0  0  0  0  0  0  0  0  0  0  0  0
    0.8858    1.9279    0.8073 H   0  0  0  0  0  0  0  0  0  0  0  0
    0.0532    0.8213    1.9207 H   0  0  0  0  0  0  0  0  0  0  0  0
   -1.4612    1.8834   -0.1940 H   0  0  0  0  0  0  0  0  0  0  0  0
   -2.7464   -0.3968    0.0685 H   0  0  0  0  0  0  0  0  0  0  0  0
    0.5472   -1.9074   -0.8623 H   0  0  0  0  0  0  0  0  0  0  0  0
   -0.9372   -0.1012   -1.9837 H   0  0  0  0  0  0  0  0  0  0  0  0
  1  2  1  0
  2  3  1  0
  3  4  1  0
  4  5  1  0
  5  6  1  0
  6  7  1  0
  7  8  1  0
  7  2  1  0
  8  4  1  0
  8  5  1  0
  1  9  1  0
  2 10  1  0
  3 11  1  0
  3 12  1  0
  4 13  1  0
  5 14  1  0
  7 15  1  0
  8 16  1  0
M  END
