
     RDKit          3D

 21 21  0  0  0  0  0  0  0  0999 V2000
   -2.4746   -0.5980   -0.8806 O   0  0  0  0  0  0  0  0  0  0  0  0
   -1.1530   -0.2931   -0.4750 C   0  0  0  0  0  0  0  0  0  0  0  0
   -0.6411   -1.4031    0.3550 C   0  0  0  0  0  0  0  0  0  0  0  0
    0.7579   -1.7668   -0.0851 C   0  0  0  0  0  0  0  0  0  0  0  0
    1.8196   -1.0339   -0.4203 C   0  0  0  0  0  0  0  0  0  0  0  0
    2.0113    0.4305   -0.4824 C   0  0  0  0  0  0  0  0  0  0  0  0
    1.2972    1.4483    0.0240 C   0  0  0  0  0  0  0  0  0  0  0  0
    0.0520    1.4959    0.8338 C   0  0  0  0  0  0  0  0  0  0  0  0
   -1.1580    1.0521    0.1091 C   0  0  0  0  0  0  0  0  0  0  0  0
   -3.0120   -0.7016   -0.0374 H   0  0  0  0  0  0  0  0  0  0  0  0
   -0.5698   -0.2888   -1.4414 H   0  0  0  0  0  0  0  0  0  0  0  0
   -1.2420   -2.3182    0.1713 H   0  0  0  0  0  0  0  0  0  0  0  0
   -0.6642   -1.2279    1.4465 H   0  0  0  0  0  0  0  0  0  0  0  0
    0.9506   -2.8168   -0.1445 H   0  0  0  0  0  0  0  0  0  0  0  0
    2.6987   -1.5961   -0.6965 H   0  0  0  0  0  0  0  0  0  0  0  0
    2.8835    0.7022   -1.0361 H   0  0  0  0  0  0  0  0  0  0  0  0
    1.7383    2.3942   -0.2219 H   0  0  0  0  0  0  0  0  0  0  0  0
   -0.0909    2.5733    1.1106 H   0  0  0  0  0  0  0  0  0  0  0  0
    0.1708    0.9632    1.8009 H   0  0  0  0  0  0  0  0  0  0  0  0
   -1.3436    1.7948   -0.7225 H   0  0  0  0  0  0  0  0  0  0  0  0
   -2.0305    1.1899    0.7924 H   0  0  0  0  0  0  0  0  0  0  0  0
  1  2  1  0
  2  3  1  0
  3  4  1  0
  4  5  2  3
  5  6  1  0
  6  7  2  3
  7  8  1  0
  8  9  1  0
  9  2  1  0
  1 10  1  0
  2 11  1  0
  3 12  1  0
  3 13  1  0
  4 14  1  0
  5 15  1  0
  6 16  1  0
  7 17  1  0
  8 18  1  0
  8 19  1  0
  9 20  1  0
  9 21  1  0
M  END
