
     RDKit          3D

 21 22  0  0  0  0  0  0  0  0999 V2000
   -2.4833   -0.5524   -0.9030 O   0  0  0  0  0  0  0  0  0  0  0  0
   -1.7774    0.4826   -0.2943 C   0  0  0  0  0  0  0  0  0  0  0  0
   -1.6230    0.3111    1.2027 C   0  0  0  0  0  0  0  0  0  0  0  0
   -0.4393    0.1464    0.2579 C   0  0  0  0  0  0  0  0  0  0  0  0
    0.6004    1.2212    0.4203 C   0  0  0  0  0  0  0  0  0  0  0  0
    1.6202    0.9492   -0.6953 C   0  0  0  0  0  0  0  0  0  0  0  0
    2.3178   -0.1510   -0.3072 O   0  0  0  0  0  0  0  0  0  0  0  0
    1.6106   -1.2877   -0.0907 C   0  0  0  0  0  0  0  0  0  0  0  0
    0.1588   -1.2006    0.0664 C   0  0  0  0  0  0  0  0  0  0  0  0
   -2.2663   -0.6673   -1.8470 H   0  0  0  0  0  0  0  0  0  0  0  0
   -1.9844    1.4821   -0.7139 H   0  0  0  0  0  0  0  0  0  0  0  0
   -1.9931   -0.6007    1.6884 H   0  0  0  0  0  0  0  0  0  0  0  0
   -1.7243    1.2502    1.7746 H   0  0  0  0  0  0  0  0  0  0  0  0
    0.1727    2.2230    0.3362 H   0  0  0  0  0  0  0  0  0  0  0  0
    1.0840    1.0651    1.4192 H   0  0  0  0  0  0  0  0  0  0  0  0
    1.0660    0.8001   -1.6206 H   0  0  0  0  0  0  0  0  0  0  0  0
    2.2952    1.8217   -0.6954 H   0  0  0  0  0  0  0  0  0  0  0  0
    2.0435   -1.7838    0.8290 H   0  0  0  0  0  0  0  0  0  0  0  0
    1.8782   -2.0073   -0.9210 H   0  0  0  0  0  0  0  0  0  0  0  0
   -0.2083   -1.8380    0.9257 H   0  0  0  0  0  0  0  0  0  0  0  0
   -0.3483   -1.6639   -0.8320 H   0  0  0  0  0  0  0  0  0  0  0  0
  1  2  1  0
  2  3  1  0
  3  4  1  0
  4  5  1  0
  5  6  1  0
  6  7  1  0
  7  8  1  0
  8  9  1  0
  4  2  1  0
  9  4  1  0
  1 10  1  0
  2 11  1  0
  3 12  1  0
  3 13  1  0
  5 14  1  0
  5 15  1  0
  6 16  1  0
  6 17  1  0
  8 18  1  0
  8 19  1  0
  9 20  1  0
  9 21  1  0
M  END
