
     RDKit          3D

 21 22  0  0  0  0  0  0  0  0999 V2000
    2.5013   -0.1087    0.4838 O   0  0  0  0  0  0  0  0  0  0  0  0
    1.5360    0.0717   -0.5217 C   0  0  0  0  0  0  0  0  0  0  0  0
    0.7757   -1.2118   -0.6383 C   0  0  0  0  0  0  0  0  0  0  0  0
   -0.2523   -1.3387    0.4312 C   0  0  0  0  0  0  0  0  0  0  0  0
   -1.1249   -0.1449    0.5998 C   0  0  0  0  0  0  0  0  0  0  0  0
   -1.9882   -0.2493    1.7180 O   0  0  0  0  0  0  0  0  0  0  0  0
   -1.7072    0.5953   -0.5399 C   0  0  0  0  0  0  0  0  0  0  0  0
   -0.5690    1.1535    0.3378 C   0  0  0  0  0  0  0  0  0  0  0  0
    0.7182    1.2848   -0.3588 C   0  0  0  0  0  0  0  0  0  0  0  0
    2.5272    0.6215    1.1274 H   0  0  0  0  0  0  0  0  0  0  0  0
    2.1386    0.1728   -1.4735 H   0  0  0  0  0  0  0  0  0  0  0  0
    1.5251   -2.0427   -0.4729 H   0  0  0  0  0  0  0  0  0  0  0  0
    0.3754   -1.3942   -1.6550 H   0  0  0  0  0  0  0  0  0  0  0  0
    0.2928   -1.4980    1.4036 H   0  0  0  0  0  0  0  0  0  0  0  0
   -0.8575   -2.2687    0.2650 H   0  0  0  0  0  0  0  0  0  0  0  0
   -2.6868   -0.9342    1.5690 H   0  0  0  0  0  0  0  0  0  0  0  0
   -1.4858    0.3576   -1.5873 H   0  0  0  0  0  0  0  0  0  0  0  0
   -2.7136    1.0829   -0.4225 H   0  0  0  0  0  0  0  0  0  0  0  0
   -0.8793    2.0447    0.9518 H   0  0  0  0  0  0  0  0  0  0  0  0
    0.5221    1.7409   -1.3742 H   0  0  0  0  0  0  0  0  0  0  0  0
    1.3525    2.0655    0.1567 H   0  0  0  0  0  0  0  0  0  0  0  0
  1  2  1  0
  2  3  1  0
  3  4  1  0
  4  5  1  0
  5  6  1  0
  5  7  1  0
  7  8  1  0
  8  9  1  0
  9  2  1  0
  8  5  1  0
  1 10  1  0
  2 11  1  0
  3 12  1  0
  3 13  1  0
  4 14  1  0
  4 15  1  0
  6 16  1  0
  7 17  1  0
  7 18  1  0
  8 19  1  0
  9 20  1  0
  9 21  1  0
M  END
