
     RDKit          3D

 21 22  0  0  0  0  0  0  0  0999 V2000
    2.8867   -0.1153   -0.4878 O   0  0  0  0  0  0  0  0  0  0  0  0
    1.8683    0.4273    0.2838 C   0  0  0  0  0  0  0  0  0  0  0  0
    0.6521    0.8260   -0.3817 C   0  0  0  0  0  0  0  0  0  0  0  0
   -0.4367    1.6696    0.1678 C   0  0  0  0  0  0  0  0  0  0  0  0
   -1.6658    0.7539    0.2850 C   0  0  0  0  0  0  0  0  0  0  0  0
   -1.6084   -0.1257   -0.7844 O   0  0  0  0  0  0  0  0  0  0  0  0
   -1.2520   -1.4068   -0.4598 C   0  0  0  0  0  0  0  0  0  0  0  0
    0.2641   -1.5666   -0.2674 C   0  0  0  0  0  0  0  0  0  0  0  0
    0.7200   -0.4172    0.5466 C   0  0  0  0  0  0  0  0  0  0  0  0
    2.9141    0.2095   -1.3985 H   0  0  0  0  0  0  0  0  0  0  0  0
    2.2411    1.0657    1.1031 H   0  0  0  0  0  0  0  0  0  0  0  0
    0.5784    0.6405   -1.4728 H   0  0  0  0  0  0  0  0  0  0  0  0
   -0.7429    2.4598   -0.5582 H   0  0  0  0  0  0  0  0  0  0  0  0
   -0.2003    2.1510    1.1336 H   0  0  0  0  0  0  0  0  0  0  0  0
   -1.6891    0.2405    1.2627 H   0  0  0  0  0  0  0  0  0  0  0  0
   -2.5669    1.3881    0.2349 H   0  0  0  0  0  0  0  0  0  0  0  0
   -1.8186   -1.7664    0.3977 H   0  0  0  0  0  0  0  0  0  0  0  0
   -1.4977   -2.0571   -1.3312 H   0  0  0  0  0  0  0  0  0  0  0  0
    0.4224   -2.5546    0.1619 H   0  0  0  0  0  0  0  0  0  0  0  0
    0.6842   -1.4800   -1.3097 H   0  0  0  0  0  0  0  0  0  0  0  0
    0.2469   -0.3421    1.5441 H   0  0  0  0  0  0  0  0  0  0  0  0
  1  2  1  0
  2  3  1  0
  3  4  1  0
  4  5  1  0
  5  6  1  0
  6  7  1  0
  7  8  1  0
  8  9  1  0
  9  2  1  0
  9  3  1  0
  1 10  1  0
  2 11  1  0
  3 12  1  0
  4 13  1  0
  4 14  1  0
  5 15  1  0
  5 16  1  0
  7 17  1  0
  7 18  1  0
  8 19  1  0
  8 20  1  0
  9 21  1  0
M  END
