
     RDKit          3D

 19 20  0  0  0  0  0  0  0  0999 V2000
   -0.6100   -1.7333    0.4328 O   0  0  0  0  0  0  0  0  0  0  0  0
   -1.1653   -0.8096   -0.4250 C   0  0  0  0  0  0  0  0  0  0  0  0
   -1.9668    0.2458    0.3473 C   0  0  0  0  0  0  0  0  0  0  0  0
   -0.9589    0.9190    1.0029 O   0  0  0  0  0  0  0  0  0  0  0  0
    0.1053    1.0687    0.1538 C   0  0  0  0  0  0  0  0  0  0  0  0
    1.3472    0.2645    0.5263 C   0  0  0  0  0  0  0  0  0  0  0  0
    2.4845    1.0009    0.7433 O   0  0  0  0  0  0  0  0  0  0  0  0
    1.3132   -0.3911   -0.8568 C   0  0  0  0  0  0  0  0  0  0  0  0
   -0.0862    0.1002   -1.0009 C   0  0  0  0  0  0  0  0  0  0  0  0
   -1.0941   -1.8005    1.2939 H   0  0  0  0  0  0  0  0  0  0  0  0
   -1.7578   -1.3093   -1.1882 H   0  0  0  0  0  0  0  0  0  0  0  0
   -2.6971   -0.1854    1.0180 H   0  0  0  0  0  0  0  0  0  0  0  0
   -2.3749    0.9249   -0.4290 H   0  0  0  0  0  0  0  0  0  0  0  0
    0.3285    2.1155   -0.1656 H   0  0  0  0  0  0  0  0  0  0  0  0
    1.1264   -0.4227    1.3492 H   0  0  0  0  0  0  0  0  0  0  0  0
    2.9540    0.7686    1.5901 H   0  0  0  0  0  0  0  0  0  0  0  0
    1.4372   -1.4851   -0.8480 H   0  0  0  0  0  0  0  0  0  0  0  0
    1.9774    0.1499   -1.5889 H   0  0  0  0  0  0  0  0  0  0  0  0
   -0.3626    0.5790   -1.9552 H   0  0  0  0  0  0  0  0  0  0  0  0
  1  2  1  0
  2  3  1  0
  3  4  1  0
  4  5  1  0
  5  6  1  0
  6  7  1  0
  6  8  1  0
  8  9  1  0
  9  2  1  0
  9  5  1  0
  1 10  1  0
  2 11  1  0
  3 12  1  0
  3 13  1  0
  5 14  1  0
  6 15  1  0
  7 16  1  0
  8 17  1  0
  8 18  1  0
  9 19  1  0
M  END
