
     RDKit          3D

 18 19  0  0  0  0  0  0  0  0999 V2000
    0.0660    2.1362   -0.3037 O   0  0  0  0  0  0  0  0  0  0  0  0
    0.4943    0.8719   -0.6374 C   0  0  0  0  0  0  0  0  0  0  0  0
    1.8156    0.6352    0.0282 C   0  0  0  0  0  0  0  0  0  0  0  0
    1.8916   -0.5729    0.5328 C   0  0  0  0  0  0  0  0  0  0  0  0
    0.6238   -1.2805    0.2587 C   0  0  0  0  0  0  0  0  0  0  0  0
   -0.3616   -0.1994   -0.0100 C   0  0  0  0  0  0  0  0  0  0  0  0
   -1.6914   -0.5472   -0.5247 C   0  0  0  0  0  0  0  0  0  0  0  0
   -1.5226    0.0912    0.8198 C   0  0  0  0  0  0  0  0  0  0  0  0
   -0.6670    2.4842   -0.8433 H   0  0  0  0  0  0  0  0  0  0  0  0
    0.6441    0.7145   -1.7229 H   0  0  0  0  0  0  0  0  0  0  0  0
    2.5881    1.3890    0.0691 H   0  0  0  0  0  0  0  0  0  0  0  0
    2.7497   -0.9697    1.0601 H   0  0  0  0  0  0  0  0  0  0  0  0
    0.3688   -1.9136    1.1315 H   0  0  0  0  0  0  0  0  0  0  0  0
    0.7219   -1.8968   -0.6706 H   0  0  0  0  0  0  0  0  0  0  0  0
   -2.1360    0.0210   -1.3696 H   0  0  0  0  0  0  0  0  0  0  0  0
   -2.0003   -1.6166   -0.5028 H   0  0  0  0  0  0  0  0  0  0  0  0
   -1.8189    1.1608    0.9497 H   0  0  0  0  0  0  0  0  0  0  0  0
   -1.7662   -0.5075    1.7353 H   0  0  0  0  0  0  0  0  0  0  0  0
  1  2  1  0
  2  3  1  0
  3  4  2  0
  4  5  1  0
  5  6  1  0
  6  7  1  0
  7  8  1  0
  6  2  1  0
  8  6  1  0
  1  9  1  0
  2 10  1  0
  3 11  1  0
  4 12  1  0
  5 13  1  0
  5 14  1  0
  7 15  1  0
  7 16  1  0
  8 17  1  0
  8 18  1  0
M  END
