
     RDKit          3D

 17 19  0  0  0  0  0  0  0  0999 V2000
    2.2410   -0.3828    0.7242 O   0  0  0  0  0  0  0  0  0  0  0  0
    1.6847   -0.0094   -0.4910 C   0  0  0  0  0  0  0  0  0  0  0  0
    0.5878    0.9469   -0.4620 C   0  0  0  0  0  0  0  0  0  0  0  0
   -0.1591    1.2441    0.6544 O   0  0  0  0  0  0  0  0  0  0  0  0
   -1.4889    0.8617    0.3448 C   0  0  0  0  0  0  0  0  0  0  0  0
   -1.5957   -0.5736    0.7846 C   0  0  0  0  0  0  0  0  0  0  0  0
   -1.7125   -1.5931   -0.1127 O   0  0  0  0  0  0  0  0  0  0  0  0
   -0.3831   -1.2799    0.1818 C   0  0  0  0  0  0  0  0  0  0  0  0
    0.3026   -0.4645   -0.8584 C   0  0  0  0  0  0  0  0  0  0  0  0
    2.9444    0.3138    0.9228 H   0  0  0  0  0  0  0  0  0  0  0  0
    2.3875    0.0350   -1.3295 H   0  0  0  0  0  0  0  0  0  0  0  0
    0.5930    1.7532   -1.2258 H   0  0  0  0  0  0  0  0  0  0  0  0
   -2.2129    1.5280    0.8387 H   0  0  0  0  0  0  0  0  0  0  0  0
   -1.6390    0.9109   -0.7727 H   0  0  0  0  0  0  0  0  0  0  0  0
   -1.8148   -0.7123    1.8552 H   0  0  0  0  0  0  0  0  0  0  0  0
    0.1926   -1.8963    0.8765 H   0  0  0  0  0  0  0  0  0  0  0  0
    0.0724   -0.6814   -1.9309 H   0  0  0  0  0  0  0  0  0  0  0  0
  1  2  1  0
  2  3  1  0
  3  4  1  0
  4  5  1  0
  5  6  1  0
  6  7  1  0
  7  8  1  0
  8  9  1  0
  9  2  1  0
  9  3  1  0
  8  6  1  0
  1 10  1  0
  2 11  1  0
  3 12  1  0
  5 13  1  0
  5 14  1  0
  6 15  1  0
  8 16  1  0
  9 17  1  0
M  END
