
     RDKit          3D

 19 20  0  0  0  0  0  0  0  0999 V2000
    2.7339    0.2848   -0.2622 O   0  0  0  0  0  0  0  0  0  0  0  0
    1.3816   -0.0803   -0.4063 C   0  0  0  0  0  0  0  0  0  0  0  0
    0.6826    1.1279   -0.9372 C   0  0  0  0  0  0  0  0  0  0  0  0
   -0.6059    1.2682   -0.7014 C   0  0  0  0  0  0  0  0  0  0  0  0
   -1.4244    0.3184    0.0528 C   0  0  0  0  0  0  0  0  0  0  0  0
   -1.6465   -1.0366   -0.5812 C   0  0  0  0  0  0  0  0  0  0  0  0
   -1.1565   -1.6309    0.5816 O   0  0  0  0  0  0  0  0  0  0  0  0
   -0.6308   -0.4354    1.0568 C   0  0  0  0  0  0  0  0  0  0  0  0
    0.8401   -0.2834    0.9879 C   0  0  0  0  0  0  0  0  0  0  0  0
    3.0804   -0.0902    0.5610 H   0  0  0  0  0  0  0  0  0  0  0  0
    1.3100   -0.9520   -1.0513 H   0  0  0  0  0  0  0  0  0  0  0  0
    1.1938    1.8939   -1.5090 H   0  0  0  0  0  0  0  0  0  0  0  0
   -1.0996    2.1730   -1.1063 H   0  0  0  0  0  0  0  0  0  0  0  0
   -2.3838    0.7480    0.4071 H   0  0  0  0  0  0  0  0  0  0  0  0
   -1.0327   -1.2834   -1.4458 H   0  0  0  0  0  0  0  0  0  0  0  0
   -2.7291   -1.2850   -0.7512 H   0  0  0  0  0  0  0  0  0  0  0  0
   -0.9994   -0.2087    2.0951 H   0  0  0  0  0  0  0  0  0  0  0  0
    1.3549   -1.1455    1.4431 H   0  0  0  0  0  0  0  0  0  0  0  0
    1.1315    0.6172    1.5663 H   0  0  0  0  0  0  0  0  0  0  0  0
  1  2  1  0
  2  3  1  0
  3  4  2  0
  4  5  1  0
  5  6  1  0
  6  7  1  0
  7  8  1  0
  8  9  1  0
  9  2  1  0
  8  5  1  0
  1 10  1  0
  2 11  1  0
  3 12  1  0
  4 13  1  0
  5 14  1  0
  6 15  1  0
  6 16  1  0
  8 17  1  0
  9 18  1  0
  9 19  1  0
M  END
