
     RDKit          3D

 19 20  0  0  0  0  0  0  0  0999 V2000
   -1.0325    1.6166   -0.7745 O   0  0  0  0  0  0  0  0  0  0  0  0
   -0.5916    0.7951    0.2868 C   0  0  0  0  0  0  0  0  0  0  0  0
   -1.6317   -0.3219    0.3924 C   0  0  0  0  0  0  0  0  0  0  0  0
   -1.0738   -1.3423   -0.5507 C   0  0  0  0  0  0  0  0  0  0  0  0
    0.0287   -0.7818   -1.1827 O   0  0  0  0  0  0  0  0  0  0  0  0
    0.5933    0.0359   -0.2166 C   0  0  0  0  0  0  0  0  0  0  0  0
    1.7922    0.8181   -0.5947 C   0  0  0  0  0  0  0  0  0  0  0  0
    2.5828   -0.1509    0.0639 O   0  0  0  0  0  0  0  0  0  0  0  0
    1.4624   -0.6414    0.7713 C   0  0  0  0  0  0  0  0  0  0  0  0
   -1.3891    2.4635   -0.4639 H   0  0  0  0  0  0  0  0  0  0  0  0
   -0.4489    1.3357    1.2141 H   0  0  0  0  0  0  0  0  0  0  0  0
   -2.6037    0.0810    0.1205 H   0  0  0  0  0  0  0  0  0  0  0  0
   -1.7084   -0.6899    1.4427 H   0  0  0  0  0  0  0  0  0  0  0  0
   -1.8438   -1.6147   -1.2899 H   0  0  0  0  0  0  0  0  0  0  0  0
   -0.7311   -2.2089    0.0658 H   0  0  0  0  0  0  0  0  0  0  0  0
    1.9710    0.9107   -1.6674 H   0  0  0  0  0  0  0  0  0  0  0  0
    1.7901    1.8104   -0.0531 H   0  0  0  0  0  0  0  0  0  0  0  0
    1.4102   -0.3555    1.8168 H   0  0  0  0  0  0  0  0  0  0  0  0
    1.4238   -1.7597    0.6194 H   0  0  0  0  0  0  0  0  0  0  0  0
  1  2  1  0
  2  3  1  0
  3  4  1  0
  4  5  1  0
  5  6  1  0
  6  7  1  0
  7  8  1  0
  8  9  1  0
  6  2  1  0
  9  6  1  0
  1 10  1  0
  2 11  1  0
  3 12  1  0
  3 13  1  0
  4 14  1  0
  4 15  1  0
  7 16  1  0
  7 17  1  0
  9 18  1  0
  9 19  1  0
M  END
