
     RDKit          3D

 19 20  0  0  0  0  0  0  0  0999 V2000
   -0.6699   -0.4656   -1.8413 O   0  0  0  0  0  0  0  0  0  0  0  0
   -0.6717   -0.7572   -0.5042 C   0  0  0  0  0  0  0  0  0  0  0  0
    0.6650   -1.0203    0.1394 C   0  0  0  0  0  0  0  0  0  0  0  0
    1.7265   -0.0437   -0.2964 C   0  0  0  0  0  0  0  0  0  0  0  0
    1.4672    1.2365    0.2318 O   0  0  0  0  0  0  0  0  0  0  0  0
    0.1307    1.5239   -0.1298 C   0  0  0  0  0  0  0  0  0  0  0  0
   -0.7454    0.4614    0.4268 C   0  0  0  0  0  0  0  0  0  0  0  0
   -2.0094    0.7879    0.8119 O   0  0  0  0  0  0  0  0  0  0  0  0
    0.0369   -0.4215    1.4119 C   0  0  0  0  0  0  0  0  0  0  0  0
   -1.5936   -0.6932   -2.1845 H   0  0  0  0  0  0  0  0  0  0  0  0
   -1.3971   -1.5235   -0.1804 H   0  0  0  0  0  0  0  0  0  0  0  0
    0.9653   -2.0591    0.2582 H   0  0  0  0  0  0  0  0  0  0  0  0
    1.8607    0.0254   -1.3747 H   0  0  0  0  0  0  0  0  0  0  0  0
    2.6786   -0.3716    0.1666 H   0  0  0  0  0  0  0  0  0  0  0  0
   -0.1134    2.5493    0.2012 H   0  0  0  0  0  0  0  0  0  0  0  0
    0.1210    1.4304   -1.2495 H   0  0  0  0  0  0  0  0  0  0  0  0
   -2.6460    0.3642    0.1583 H   0  0  0  0  0  0  0  0  0  0  0  0
    0.7844    0.1213    2.0084 H   0  0  0  0  0  0  0  0  0  0  0  0
   -0.5897   -1.1449    1.9463 H   0  0  0  0  0  0  0  0  0  0  0  0
  1  2  1  0
  2  3  1  0
  3  4  1  0
  4  5  1  0
  5  6  1  0
  6  7  1  0
  7  8  1  0
  7  9  1  0
  7  2  1  0
  9  3  1  0
  1 10  1  0
  2 11  1  0
  3 12  1  0
  4 13  1  0
  4 14  1  0
  6 15  1  0
  6 16  1  0
  8 17  1  0
  9 18  1  0
  9 19  1  0
M  END
