
     RDKit          3D

 19 21  0  0  0  0  0  0  0  0999 V2000
   -0.8131    1.5276    1.2353 O   0  0  0  0  0  0  0  0  0  0  0  0
   -0.9247    0.9476   -0.0220 C   0  0  0  0  0  0  0  0  0  0  0  0
   -1.7146   -0.3173   -0.1037 C   0  0  0  0  0  0  0  0  0  0  0  0
   -1.2016   -1.6273    0.2830 C   0  0  0  0  0  0  0  0  0  0  0  0
   -0.4892   -0.9286   -0.8456 C   0  0  0  0  0  0  0  0  0  0  0  0
    0.3153    0.2444   -0.4030 C   0  0  0  0  0  0  0  0  0  0  0  0
    1.3204   -0.0385    0.6596 C   0  0  0  0  0  0  0  0  0  0  0  0
    2.2535    0.4706   -0.3897 C   0  0  0  0  0  0  0  0  0  0  0  0
    1.1910    0.8116   -1.2532 O   0  0  0  0  0  0  0  0  0  0  0  0
   -1.3391    2.3418    1.2715 H   0  0  0  0  0  0  0  0  0  0  0  0
   -1.2015    1.7176   -0.7732 H   0  0  0  0  0  0  0  0  0  0  0  0
   -2.6566   -0.2676   -0.6397 H   0  0  0  0  0  0  0  0  0  0  0  0
   -1.7637   -2.5100   -0.0167 H   0  0  0  0  0  0  0  0  0  0  0  0
   -0.5654   -1.7389    1.2024 H   0  0  0  0  0  0  0  0  0  0  0  0
   -0.6955   -1.1556   -1.8841 H   0  0  0  0  0  0  0  0  0  0  0  0
    1.1603    0.6213    1.5341 H   0  0  0  0  0  0  0  0  0  0  0  0
    1.3950   -1.0933    0.9408 H   0  0  0  0  0  0  0  0  0  0  0  0
    2.8326    1.3473   -0.0231 H   0  0  0  0  0  0  0  0  0  0  0  0
    2.8970   -0.3527   -0.7726 H   0  0  0  0  0  0  0  0  0  0  0  0
  1  2  1  0
  2  3  1  0
  3  4  1  0
  4  5  1  0
  5  6  1  0
  6  7  1  0
  7  8  1  0
  8  9  1  0
  6  2  1  0
  5  3  1  0
  9  6  1  0
  1 10  1  0
  2 11  1  0
  3 12  1  0
  4 13  1  0
  4 14  1  0
  5 15  1  0
  7 16  1  0
  7 17  1  0
  8 18  1  0
  8 19  1  0
M  END
