
     RDKit          3D

 17 20  0  0  0  0  0  0  0  0999 V2000
   -2.2398   -0.2272    0.7082 O   0  0  0  0  0  0  0  0  0  0  0  0
   -1.2772   -0.0728   -0.2497 C   0  0  0  0  0  0  0  0  0  0  0  0
   -0.5164    1.1953    0.0442 C   0  0  0  0  0  0  0  0  0  0  0  0
    0.6432    1.0769    0.9291 C   0  0  0  0  0  0  0  0  0  0  0  0
    1.1079   -0.1072    1.4380 O   0  0  0  0  0  0  0  0  0  0  0  0
    1.0184   -1.0760    0.4649 C   0  0  0  0  0  0  0  0  0  0  0  0
   -0.2405   -1.1354   -0.2978 C   0  0  0  0  0  0  0  0  0  0  0  0
    0.9526   -0.4496   -0.8640 C   0  0  0  0  0  0  0  0  0  0  0  0
    0.7844    1.0005   -0.5874 C   0  0  0  0  0  0  0  0  0  0  0  0
   -2.2819   -1.1201    1.0928 H   0  0  0  0  0  0  0  0  0  0  0  0
   -1.7695   -0.0371   -1.2618 H   0  0  0  0  0  0  0  0  0  0  0  0
   -1.0424    2.1654    0.0055 H   0  0  0  0  0  0  0  0  0  0  0  0
    0.9790    1.9852    1.4437 H   0  0  0  0  0  0  0  0  0  0  0  0
    1.6161   -1.9763    0.5666 H   0  0  0  0  0  0  0  0  0  0  0  0
   -0.5480   -2.1460   -0.6459 H   0  0  0  0  0  0  0  0  0  0  0  0
    1.4064   -0.8445   -1.7649 H   0  0  0  0  0  0  0  0  0  0  0  0
    1.4078    1.7689   -1.0215 H   0  0  0  0  0  0  0  0  0  0  0  0
  1  2  1  0
  2  3  1  0
  3  4  1  0
  4  5  1  0
  5  6  1  0
  6  7  1  0
  7  8  1  0
  8  9  1  0
  7  2  1  0
  9  3  1  0
  9  4  1  0
  8  6  1  0
  1 10  1  0
  2 11  1  0
  3 12  1  0
  4 13  1  0
  6 14  1  0
  7 15  1  0
  8 16  1  0
  9 17  1  0
M  END
