
     RDKit          3D

 17 18  0  0  0  0  0  0  0  0999 V2000
   -1.9026    0.9181   -0.8248 O   0  0  0  0  0  0  0  0  0  0  0  0
   -1.1583    0.4857    0.2755 C   0  0  0  0  0  0  0  0  0  0  0  0
   -1.2452   -1.0170    0.4427 C   0  0  0  0  0  0  0  0  0  0  0  0
    0.0266   -1.5560   -0.1758 C   0  0  0  0  0  0  0  0  0  0  0  0
    0.9649   -0.4201   -0.1863 C   0  0  0  0  0  0  0  0  0  0  0  0
    2.2825   -0.0526   -0.3557 C   0  0  0  0  0  0  0  0  0  0  0  0
    2.3587    1.2477   -0.2041 O   0  0  0  0  0  0  0  0  0  0  0  0
    1.2069    1.7929    0.0532 C   0  0  0  0  0  0  0  0  0  0  0  0
    0.2926    0.7595    0.0725 C   0  0  0  0  0  0  0  0  0  0  0  0
   -2.1506    1.8628   -0.6953 H   0  0  0  0  0  0  0  0  0  0  0  0
   -1.5541    1.0022    1.1663 H   0  0  0  0  0  0  0  0  0  0  0  0
   -1.2755   -1.3017    1.5351 H   0  0  0  0  0  0  0  0  0  0  0  0
   -2.1586   -1.4472   -0.0092 H   0  0  0  0  0  0  0  0  0  0  0  0
    0.3891   -2.4058    0.4462 H   0  0  0  0  0  0  0  0  0  0  0  0
   -0.1471   -1.9769   -1.1889 H   0  0  0  0  0  0  0  0  0  0  0  0
    3.1089   -0.7385   -0.5774 H   0  0  0  0  0  0  0  0  0  0  0  0
    0.9620    2.8469    0.2262 H   0  0  0  0  0  0  0  0  0  0  0  0
  1  2  1  0
  2  3  1  0
  3  4  1  0
  4  5  1  0
  5  6  2  0
  6  7  1  0
  7  8  1  0
  8  9  2  0
  9  2  1  0
  9  5  1  0
  1 10  1  0
  2 11  1  0
  3 12  1  0
  3 13  1  0
  4 14  1  0
  4 15  1  0
  6 16  1  0
  8 17  1  0
M  END
