
     RDKit          3D

 16 17  0  0  0  0  0  0  0  0999 V2000
    2.2559   -0.3781    0.2236 O   0  0  0  0  0  0  0  0  0  0  0  0
    1.0835    0.2755    0.5494 C   0  0  0  0  0  0  0  0  0  0  0  0
    0.4061    0.7571   -0.7392 C   0  0  0  0  0  0  0  0  0  0  0  0
   -0.6826   -0.2516   -0.9213 C   0  0  0  0  0  0  0  0  0  0  0  0
   -1.8017   -0.0026    0.0836 C   0  0  0  0  0  0  0  0  0  0  0  0
   -1.1277   -0.2612    1.2867 O   0  0  0  0  0  0  0  0  0  0  0  0
    0.0864   -0.8180    0.9650 C   0  0  0  0  0  0  0  0  0  0  0  0
   -0.1185   -1.3997   -0.3112 O   0  0  0  0  0  0  0  0  0  0  0  0
    2.9983    0.2172    0.0110 H   0  0  0  0  0  0  0  0  0  0  0  0
    1.1771    1.0578    1.2941 H   0  0  0  0  0  0  0  0  0  0  0  0
   -0.0861    1.7474   -0.5674 H   0  0  0  0  0  0  0  0  0  0  0  0
    1.1016    0.7667   -1.5758 H   0  0  0  0  0  0  0  0  0  0  0  0
   -1.0185   -0.4201   -1.9249 H   0  0  0  0  0  0  0  0  0  0  0  0
   -2.5800   -0.7923   -0.0898 H   0  0  0  0  0  0  0  0  0  0  0  0
   -2.1940    1.0138    0.0329 H   0  0  0  0  0  0  0  0  0  0  0  0
    0.5002   -1.5118    1.6832 H   0  0  0  0  0  0  0  0  0  0  0  0
  1  2  1  0
  2  3  1  0
  3  4  1  0
  4  5  1  0
  5  6  1  0
  6  7  1  0
  7  8  1  0
  7  2  1  0
  8  4  1  0
  1  9  1  0
  2 10  1  0
  3 11  1  0
  3 12  1  0
  4 13  1  0
  5 14  1  0
  5 15  1  0
  7 16  1  0
M  END
