
     RDKit          3D

 17 19  0  0  0  0  0  0  0  0999 V2000
    2.5446    0.7399   -0.6665 O   0  0  0  0  0  0  0  0  0  0  0  0
    1.4531   -0.1597   -0.6272 C   0  0  0  0  0  0  0  0  0  0  0  0
    1.3404   -0.9292    0.6942 C   0  0  0  0  0  0  0  0  0  0  0  0
    0.3848    0.1114    0.3002 C   0  0  0  0  0  0  0  0  0  0  0  0
    0.2650    1.3179    0.9724 O   0  0  0  0  0  0  0  0  0  0  0  0
   -1.0352    1.4690    0.4991 C   0  0  0  0  0  0  0  0  0  0  0  0
   -1.0336    0.0019    0.1625 C   0  0  0  0  0  0  0  0  0  0  0  0
   -1.9948   -0.6689   -0.4932 C   0  0  0  0  0  0  0  0  0  0  0  0
   -1.7593   -0.8985    0.8921 O   0  0  0  0  0  0  0  0  0  0  0  0
    3.1932    0.4897   -1.3688 H   0  0  0  0  0  0  0  0  0  0  0  0
    1.3631   -0.7433   -1.5620 H   0  0  0  0  0  0  0  0  0  0  0  0
    2.0316   -0.6922    1.5077 H   0  0  0  0  0  0  0  0  0  0  0  0
    1.0703   -2.0050    0.6443 H   0  0  0  0  0  0  0  0  0  0  0  0
   -1.1560    2.0816   -0.3994 H   0  0  0  0  0  0  0  0  0  0  0  0
   -1.7952    1.6873    1.2763 H   0  0  0  0  0  0  0  0  0  0  0  0
   -1.8505   -1.5656   -1.1630 H   0  0  0  0  0  0  0  0  0  0  0  0
   -3.0214   -0.2363   -0.6685 H   0  0  0  0  0  0  0  0  0  0  0  0
  1  2  1  0
  2  3  1  0
  3  4  1  0
  4  5  1  0
  5  6  1  0
  6  7  1  0
  7  8  1  0
  8  9  1  0
  4  2  1  0
  9  7  1  0
  7  4  1  0
  1 10  1  0
  2 11  1  0
  3 12  1  0
  3 13  1  0
  6 14  1  0
  6 15  1  0
  8 16  1  0
  8 17  1  0
M  END
