
     RDKit          3D

 19 21  0  0  0  0  0  0  0  0999 V2000
    2.3233    1.1101   -0.2612 O   0  0  0  0  0  0  0  0  0  0  0  0
    1.2305    0.3139   -0.5300 C   0  0  0  0  0  0  0  0  0  0  0  0
    1.4003   -1.0631    0.0390 C   0  0  0  0  0  0  0  0  0  0  0  0
   -0.0192   -1.4141    0.4930 C   0  0  0  0  0  0  0  0  0  0  0  0
   -1.1704   -0.8678   -0.2300 C   0  0  0  0  0  0  0  0  0  0  0  0
   -1.2090    0.4785   -0.8526 C   0  0  0  0  0  0  0  0  0  0  0  0
   -2.3898    1.1538   -0.4829 O   0  0  0  0  0  0  0  0  0  0  0  0
   -0.0502    0.8850    0.0453 C   0  0  0  0  0  0  0  0  0  0  0  0
   -0.5167   -0.1559    1.0044 C   0  0  0  0  0  0  0  0  0  0  0  0
    2.2444    1.4651    0.6418 H   0  0  0  0  0  0  0  0  0  0  0  0
    1.1205    0.1942   -1.6478 H   0  0  0  0  0  0  0  0  0  0  0  0
    2.0629   -0.9580    0.9417 H   0  0  0  0  0  0  0  0  0  0  0  0
    1.7742   -1.8032   -0.6691 H   0  0  0  0  0  0  0  0  0  0  0  0
   -0.1624   -2.3206    1.0785 H   0  0  0  0  0  0  0  0  0  0  0  0
   -2.1457   -1.3391   -0.0549 H   0  0  0  0  0  0  0  0  0  0  0  0
   -1.0367    0.5701   -1.9241 H   0  0  0  0  0  0  0  0  0  0  0  0
   -2.2439    1.8103    0.2224 H   0  0  0  0  0  0  0  0  0  0  0  0
   -0.0260    1.9197    0.3651 H   0  0  0  0  0  0  0  0  0  0  0  0
   -1.1859    0.0213    1.8214 H   0  0  0  0  0  0  0  0  0  0  0  0
  1  2  1  0
  2  3  1  0
  3  4  1  0
  4  5  1  0
  5  6  1  0
  6  7  1  0
  6  8  1  0
  8  9  1  0
  8  2  1  0
  9  4  1  0
  9  5  1  0
  1 10  1  0
  2 11  1  0
  3 12  1  0
  3 13  1  0
  4 14  1  0
  5 15  1  0
  6 16  1  0
  7 17  1  0
  8 18  1  0
  9 19  1  0
M  END
