
     RDKit          3D

 17 19  0  0  0  0  0  0  0  0999 V2000
    2.3437   -0.3063    1.1636 O   0  0  0  0  0  0  0  0  0  0  0  0
    1.0686    0.1616    1.0135 C   0  0  0  0  0  0  0  0  0  0  0  0
    0.0021   -0.8709    0.5840 C   0  0  0  0  0  0  0  0  0  0  0  0
   -1.4114   -0.5274    0.7817 C   0  0  0  0  0  0  0  0  0  0  0  0
   -2.5095   -0.7263    0.0978 O   0  0  0  0  0  0  0  0  0  0  0  0
   -1.6664   -0.1615   -0.7162 C   0  0  0  0  0  0  0  0  0  0  0  0
   -0.7674    1.0302   -0.6365 C   0  0  0  0  0  0  0  0  0  0  0  0
    0.5420    0.2827   -0.3341 C   0  0  0  0  0  0  0  0  0  0  0  0
    1.2501   -0.1718   -1.4557 O   0  0  0  0  0  0  0  0  0  0  0  0
    2.5296   -0.9368    0.4267 H   0  0  0  0  0  0  0  0  0  0  0  0
    0.6848    0.9170    1.7609 H   0  0  0  0  0  0  0  0  0  0  0  0
    0.3567   -1.8823    0.3224 H   0  0  0  0  0  0  0  0  0  0  0  0
   -1.5470    0.3276    1.5152 H   0  0  0  0  0  0  0  0  0  0  0  0
   -1.2346   -0.8974   -1.4662 H   0  0  0  0  0  0  0  0  0  0  0  0
   -0.6172    1.5029   -1.6156 H   0  0  0  0  0  0  0  0  0  0  0  0
   -0.9515    1.7029    0.1949 H   0  0  0  0  0  0  0  0  0  0  0  0
    1.9274    0.5557   -1.6364 H   0  0  0  0  0  0  0  0  0  0  0  0
  1  2  1  0
  2  3  1  0
  3  4  1  0
  4  5  1  0
  5  6  1  0
  6  7  1  0
  7  8  1  0
  8  9  1  0
  8  2  1  0
  8  3  1  0
  6  4  1  0
  1 10  1  0
  2 11  1  0
  3 12  1  0
  4 13  1  0
  6 14  1  0
  7 15  1  0
  7 16  1  0
  9 17  1  0
M  END
