
     RDKit          3D

 18 18  0  0  0  0  0  0  0  0999 V2000
    2.0158    0.8567    0.5590 O   0  0  0  0  0  0  0  0  0  0  0  0
    1.1362    0.3852   -0.4375 C   0  0  0  0  0  0  0  0  0  0  0  0
    0.1587    1.4524   -0.7113 C   0  0  0  0  0  0  0  0  0  0  0  0
   -1.0441    1.4876   -0.1703 C   0  0  0  0  0  0  0  0  0  0  0  0
   -1.4263    0.3989    0.7572 C   0  0  0  0  0  0  0  0  0  0  0  0
   -0.9318   -0.9015    0.1785 C   0  0  0  0  0  0  0  0  0  0  0  0
    0.5341   -0.9286   -0.0848 C   0  0  0  0  0  0  0  0  0  0  0  0
    0.7650   -1.8700   -1.1014 O   0  0  0  0  0  0  0  0  0  0  0  0
    2.0529    0.2362    1.3283 H   0  0  0  0  0  0  0  0  0  0  0  0
    1.7666    0.2582   -1.3440 H   0  0  0  0  0  0  0  0  0  0  0  0
    0.4367    2.2593   -1.3961 H   0  0  0  0  0  0  0  0  0  0  0  0
   -1.7160    2.2993   -0.4121 H   0  0  0  0  0  0  0  0  0  0  0  0
   -0.9419    0.5055    1.7570 H   0  0  0  0  0  0  0  0  0  0  0  0
   -2.5274    0.3342    0.8308 H   0  0  0  0  0  0  0  0  0  0  0  0
   -1.1842   -1.6938    0.9438 H   0  0  0  0  0  0  0  0  0  0  0  0
   -1.5292   -1.2079   -0.7290 H   0  0  0  0  0  0  0  0  0  0  0  0
    1.0397   -1.3162    0.8443 H   0  0  0  0  0  0  0  0  0  0  0  0
    1.3953   -2.5553   -0.8125 H   0  0  0  0  0  0  0  0  0  0  0  0
  1  2  1  0
  2  3  1  0
  3  4  2  0
  4  5  1  0
  5  6  1  0
  6  7  1  0
  7  8  1  0
  7  2  1  0
  1  9  1  0
  2 10  1  0
  3 11  1  0
  4 12  1  0
  5 13  1  0
  5 14  1  0
  6 15  1  0
  6 16  1  0
  7 17  1  0
  8 18  1  0
M  END
