
     RDKit          3D

 19 20  0  0  0  0  0  0  0  0999 V2000
    2.4402   -1.6522    0.5865 O   0  0  0  0  0  0  0  0  0  0  0  0
    1.5292   -0.6303    0.6813 C   0  0  0  0  0  0  0  0  0  0  0  0
    1.7595    0.5062   -0.2893 C   0  0  0  0  0  0  0  0  0  0  0  0
    0.5127   -0.3522   -0.3489 C   0  0  0  0  0  0  0  0  0  0  0  0
   -0.7386    0.3291    0.1072 C   0  0  0  0  0  0  0  0  0  0  0  0
   -0.5375    1.5800    0.6844 O   0  0  0  0  0  0  0  0  0  0  0  0
   -1.7166   -0.4953    0.8807 C   0  0  0  0  0  0  0  0  0  0  0  0
   -2.7488    0.1958    0.2224 O   0  0  0  0  0  0  0  0  0  0  0  0
   -1.8901    0.2967   -0.8761 C   0  0  0  0  0  0  0  0  0  0  0  0
    3.2246   -1.3937    1.1665 H   0  0  0  0  0  0  0  0  0  0  0  0
    1.3165   -0.3067    1.7292 H   0  0  0  0  0  0  0  0  0  0  0  0
    2.5161    0.3657   -1.1048 H   0  0  0  0  0  0  0  0  0  0  0  0
    1.6977    1.5310    0.0916 H   0  0  0  0  0  0  0  0  0  0  0  0
    0.4239   -0.9788   -1.2558 H   0  0  0  0  0  0  0  0  0  0  0  0
   -0.4666    2.2461   -0.0445 H   0  0  0  0  0  0  0  0  0  0  0  0
   -1.6882   -0.3461    1.9675 H   0  0  0  0  0  0  0  0  0  0  0  0
   -1.7681   -1.5624    0.5869 H   0  0  0  0  0  0  0  0  0  0  0  0
   -1.8474   -0.6000   -1.5012 H   0  0  0  0  0  0  0  0  0  0  0  0
   -2.0186    1.2672   -1.4226 H   0  0  0  0  0  0  0  0  0  0  0  0
  1  2  1  0
  2  3  1  0
  3  4  1  0
  4  5  1  0
  5  6  1  0
  5  7  1  0
  7  8  1  0
  8  9  1  0
  4  2  1  0
  9  5  1  0
  1 10  1  0
  2 11  1  0
  3 12  1  0
  3 13  1  0
  4 14  1  0
  6 15  1  0
  7 16  1  0
  7 17  1  0
  9 18  1  0
  9 19  1  0
M  END
