
     RDKit          3D

 17 19  0  0  0  0  0  0  0  0999 V2000
    2.3720   -0.8494    0.2168 O   0  0  0  0  0  0  0  0  0  0  0  0
    1.1518   -0.2470    0.2887 C   0  0  0  0  0  0  0  0  0  0  0  0
    1.0799    1.1936   -0.1935 C   0  0  0  0  0  0  0  0  0  0  0  0
   -0.2735    0.8021   -0.8064 C   0  0  0  0  0  0  0  0  0  0  0  0
   -1.4887    0.8932    0.0427 C   0  0  0  0  0  0  0  0  0  0  0  0
   -2.1157   -0.3332    0.0596 O   0  0  0  0  0  0  0  0  0  0  0  0
   -1.1726   -1.3193   -0.0437 C   0  0  0  0  0  0  0  0  0  0  0  0
    0.0817   -0.6847   -0.6417 C   0  0  0  0  0  0  0  0  0  0  0  0
   -0.1485   -0.0707   -1.8486 O   0  0  0  0  0  0  0  0  0  0  0  0
    2.6331   -1.2965    1.0591 H   0  0  0  0  0  0  0  0  0  0  0  0
    0.7752   -0.2640    1.3525 H   0  0  0  0  0  0  0  0  0  0  0  0
    1.0078    1.9521    0.6055 H   0  0  0  0  0  0  0  0  0  0  0  0
    1.8458    1.3604   -0.9691 H   0  0  0  0  0  0  0  0  0  0  0  0
   -2.1791    1.6951   -0.2886 H   0  0  0  0  0  0  0  0  0  0  0  0
   -1.1352    1.0815    1.0996 H   0  0  0  0  0  0  0  0  0  0  0  0
   -1.5065   -2.0707   -0.8171 H   0  0  0  0  0  0  0  0  0  0  0  0
   -0.9276   -1.8426    0.8843 H   0  0  0  0  0  0  0  0  0  0  0  0
  1  2  1  0
  2  3  1  0
  3  4  1  0
  4  5  1  0
  5  6  1  0
  6  7  1  0
  7  8  1  0
  8  9  1  0
  8  2  1  0
  8  4  1  0
  9  4  1  0
  1 10  1  0
  2 11  1  0
  3 12  1  0
  3 13  1  0
  5 14  1  0
  5 15  1  0
  7 16  1  0
  7 17  1  0
M  END
