
     RDKit          3D

 19 22  0  0  0  0  0  0  0  0999 V2000
    2.5570    0.4195    1.0057 O   0  0  0  0  0  0  0  0  0  0  0  0
    1.8584    0.1279   -0.1620 C   0  0  0  0  0  0  0  0  0  0  0  0
    0.8818   -1.0051   -0.0470 C   0  0  0  0  0  0  0  0  0  0  0  0
    0.0833   -0.2782   -1.1004 C   0  0  0  0  0  0  0  0  0  0  0  0
   -1.3649   -0.5066   -0.8175 C   0  0  0  0  0  0  0  0  0  0  0  0
   -2.1165    0.5339   -0.0217 C   0  0  0  0  0  0  0  0  0  0  0  0
   -1.3233   -0.4317    0.7487 C   0  0  0  0  0  0  0  0  0  0  0  0
    0.1405   -0.1492    0.9273 C   0  0  0  0  0  0  0  0  0  0  0  0
    0.5093    0.8077   -0.1683 C   0  0  0  0  0  0  0  0  0  0  0  0
    2.6247    1.3988    1.1650 H   0  0  0  0  0  0  0  0  0  0  0  0
    2.4317    0.1940   -1.0989 H   0  0  0  0  0  0  0  0  0  0  0  0
    1.0732   -1.9839   -0.0035 H   0  0  0  0  0  0  0  0  0  0  0  0
    0.4406   -0.2851   -2.1119 H   0  0  0  0  0  0  0  0  0  0  0  0
   -1.8894   -1.3824   -1.2246 H   0  0  0  0  0  0  0  0  0  0  0  0
   -1.7498    1.5864   -0.0984 H   0  0  0  0  0  0  0  0  0  0  0  0
   -3.2172    0.4143    0.0306 H   0  0  0  0  0  0  0  0  0  0  0  0
   -1.8009   -1.2509    1.2837 H   0  0  0  0  0  0  0  0  0  0  0  0
    0.5322    0.0035    1.9125 H   0  0  0  0  0  0  0  0  0  0  0  0
    0.3294    1.7871   -0.2191 H   0  0  0  0  0  0  0  0  0  0  0  0
  1  2  1  0
  2  3  1  0
  3  4  1  0
  4  5  1  0
  5  6  1  0
  6  7  1  0
  7  8  1  0
  8  9  1  0
  9  2  1  0
  8  3  1  0
  9  4  1  0
  7  5  1  0
  1 10  1  0
  2 11  1  0
  3 12  1  0
  4 13  1  0
  5 14  1  0
  6 15  1  0
  6 16  1  0
  7 17  1  0
  8 18  1  0
  9 19  1  0
M  END
