
     RDKit          3D

 14 14  0  0  0  0  0  0  0  0999 V2000
    1.8366   -0.1174    0.5683 O   0  0  0  0  0  0  0  0  0  0  0  0
    0.8107   -0.0571   -0.3599 C   0  0  0  0  0  0  0  0  0  0  0  0
   -0.0993    1.1458   -0.1840 C   0  0  0  0  0  0  0  0  0  0  0  0
   -0.7802    0.3388    0.9079 C   0  0  0  0  0  0  0  0  0  0  0  0
   -0.3707   -0.9042    0.1058 C   0  0  0  0  0  0  0  0  0  0  0  0
   -1.2874   -1.2166   -0.8687 O   0  0  0  0  0  0  0  0  0  0  0  0
    2.5751   -0.6918    0.2135 H   0  0  0  0  0  0  0  0  0  0  0  0
    1.1058   -0.1863   -1.3987 H   0  0  0  0  0  0  0  0  0  0  0  0
   -0.7765    1.2754   -1.0408 H   0  0  0  0  0  0  0  0  0  0  0  0
    0.4463    2.0292    0.1373 H   0  0  0  0  0  0  0  0  0  0  0  0
   -1.8638    0.4057    0.9540 H   0  0  0  0  0  0  0  0  0  0  0  0
   -0.2246    0.3387    1.8690 H   0  0  0  0  0  0  0  0  0  0  0  0
   -0.0773   -1.7417    0.7390 H   0  0  0  0  0  0  0  0  0  0  0  0
   -1.2946   -0.6185   -1.6427 H   0  0  0  0  0  0  0  0  0  0  0  0
  1  2  1  0
  2  3  1  0
  3  4  1  0
  4  5  1  0
  5  6  1  0
  5  2  1  0
  1  7  1  0
  2  8  1  0
  3  9  1  0
  3 10  1  0
  4 11  1  0
  4 12  1  0
  5 13  1  0
  6 14  1  0
M  END
