
     RDKit          3D

 20 20  0  0  0  0  0  0  0  0999 V2000
   -1.2008   -1.0588   -1.4060 O   0  0  0  0  0  0  0  0  0  0  0  0
   -1.1460   -0.8429   -0.0311 C   0  0  0  0  0  0  0  0  0  0  0  0
   -1.4254    0.5932    0.2780 C   0  0  0  0  0  0  0  0  0  0  0  0
   -0.3287    1.5325   -0.1136 C   0  0  0  0  0  0  0  0  0  0  0  0
    0.9894    1.0566    0.4787 C   0  0  0  0  0  0  0  0  0  0  0  0
    1.2311   -0.3333   -0.0929 C   0  0  0  0  0  0  0  0  0  0  0  0
    2.5340   -0.7417    0.0294 O   0  0  0  0  0  0  0  0  0  0  0  0
    0.2197   -1.2979    0.4459 C   0  0  0  0  0  0  0  0  0  0  0  0
   -1.7557   -1.8329   -1.6503 H   0  0  0  0  0  0  0  0  0  0  0  0
   -1.9502   -1.4495    0.4382 H   0  0  0  0  0  0  0  0  0  0  0  0
   -1.6018    0.7240    1.3692 H   0  0  0  0  0  0  0  0  0  0  0  0
   -2.3366    0.8881   -0.2724 H   0  0  0  0  0  0  0  0  0  0  0  0
   -0.5363    2.5186    0.3625 H   0  0  0  0  0  0  0  0  0  0  0  0
   -0.1953    1.6604   -1.1940 H   0  0  0  0  0  0  0  0  0  0  0  0
    0.8985    1.0451    1.5746 H   0  0  0  0  0  0  0  0  0  0  0  0
    1.8329    1.6794    0.1524 H   0  0  0  0  0  0  0  0  0  0  0  0
    1.0228   -0.2344   -1.1964 H   0  0  0  0  0  0  0  0  0  0  0  0
    3.0693   -0.1905   -0.6290 H   0  0  0  0  0  0  0  0  0  0  0  0
    0.2754   -1.4366    1.5328 H   0  0  0  0  0  0  0  0  0  0  0  0
    0.4034   -2.2795   -0.0762 H   0  0  0  0  0  0  0  0  0  0  0  0
  1  2  1  0
  2  3  1  0
  3  4  1  0
  4  5  1  0
  5  6  1  0
  6  7  1  0
  6  8  1  0
  8  2  1  0
  1  9  1  0
  2 10  1  0
  3 11  1  0
  3 12  1  0
  4 13  1  0
  4 14  1  0
  5 15  1  0
  5 16  1  0
  6 17  1  0
  7 18  1  0
  8 19  1  0
  8 20  1  0
M  END
