
     RDKit          3D

 17 19  0  0  0  0  0  0  0  0999 V2000
    0.7853    2.1913    0.1839 O   0  0  0  0  0  0  0  0  0  0  0  0
    0.0897    1.0435    0.4851 C   0  0  0  0  0  0  0  0  0  0  0  0
   -0.5827    0.3537   -0.6864 C   0  0  0  0  0  0  0  0  0  0  0  0
   -1.7394   -0.5345   -0.2421 C   0  0  0  0  0  0  0  0  0  0  0  0
   -1.2072   -1.3096    0.7741 O   0  0  0  0  0  0  0  0  0  0  0  0
    0.1561   -1.4834    0.5049 C   0  0  0  0  0  0  0  0  0  0  0  0
    0.5241   -0.6595   -0.6451 C   0  0  0  0  0  0  0  0  0  0  0  0
    0.9165   -0.1907    0.6764 C   0  0  0  0  0  0  0  0  0  0  0  0
    2.2383   -0.1627    0.9719 O   0  0  0  0  0  0  0  0  0  0  0  0
    0.2242    2.8835   -0.2046 H   0  0  0  0  0  0  0  0  0  0  0  0
   -0.6577    1.1316    1.3161 H   0  0  0  0  0  0  0  0  0  0  0  0
   -0.7265    0.9278   -1.5881 H   0  0  0  0  0  0  0  0  0  0  0  0
   -2.5562    0.1171    0.0584 H   0  0  0  0  0  0  0  0  0  0  0  0
   -1.9778   -1.1979   -1.0974 H   0  0  0  0  0  0  0  0  0  0  0  0
    0.6390   -2.4203    0.7826 H   0  0  0  0  0  0  0  0  0  0  0  0
    1.1420   -0.9159   -1.4712 H   0  0  0  0  0  0  0  0  0  0  0  0
    2.7321    0.2259    0.1816 H   0  0  0  0  0  0  0  0  0  0  0  0
  1  2  1  0
  2  3  1  0
  3  4  1  0
  4  5  1  0
  5  6  1  0
  6  7  1  0
  7  8  1  0
  8  9  1  0
  8  2  1  0
  7  3  1  0
  8  6  1  0
  1 10  1  0
  2 11  1  0
  3 12  1  0
  4 13  1  0
  4 14  1  0
  6 15  1  0
  7 16  1  0
  9 17  1  0
M  END
