
     RDKit          3D

 16 18  0  0  0  0  0  0  0  0999 V2000
    2.1577   -0.5678    0.6600 O   0  0  0  0  0  0  0  0  0  0  0  0
    1.1067   -0.1275   -0.0840 C   0  0  0  0  0  0  0  0  0  0  0  0
    0.2875    0.9581    0.5690 C   0  0  0  0  0  0  0  0  0  0  0  0
   -0.7827    1.1147   -0.5171 C   0  0  0  0  0  0  0  0  0  0  0  0
   -1.1765   -0.3685   -0.5962 C   0  0  0  0  0  0  0  0  0  0  0  0
   -0.9757   -0.8054    0.7937 C   0  0  0  0  0  0  0  0  0  0  0  0
   -0.4122    0.2703    1.5218 O   0  0  0  0  0  0  0  0  0  0  0  0
   -0.0080   -1.1701   -0.2241 C   0  0  0  0  0  0  0  0  0  0  0  0
    2.9960   -0.1641    0.2648 H   0  0  0  0  0  0  0  0  0  0  0  0
    1.4039    0.1492   -1.1222 H   0  0  0  0  0  0  0  0  0  0  0  0
    0.7914    1.8485    0.8371 H   0  0  0  0  0  0  0  0  0  0  0  0
   -1.6101    1.6939   -0.1137 H   0  0  0  0  0  0  0  0  0  0  0  0
   -0.3489    1.4762   -1.4502 H   0  0  0  0  0  0  0  0  0  0  0  0
   -1.9801   -0.6749   -1.2407 H   0  0  0  0  0  0  0  0  0  0  0  0
   -1.6707   -1.4795    1.2960 H   0  0  0  0  0  0  0  0  0  0  0  0
    0.2217   -2.1531   -0.5942 H   0  0  0  0  0  0  0  0  0  0  0  0
  1  2  1  0
  2  3  1  0
  3  4  1  0
  4  5  1  0
  5  6  1  0
  6  7  1  0
  6  8  1  0
  8  2  1  0
  7  3  1  0
  8  5  1  0
  1  9  1  0
  2 10  1  0
  3 11  1  0
  4 12  1  0
  4 13  1  0
  5 14  1  0
  6 15  1  0
  8 16  1  0
M  END
