
     RDKit          3D

 19 21  0  0  0  0  0  0  0  0999 V2000
    2.4376   -0.6731    0.4508 O   0  0  0  0  0  0  0  0  0  0  0  0
    1.2463   -0.2685   -0.0655 C   0  0  0  0  0  0  0  0  0  0  0  0
    0.8229    1.1139    0.2856 C   0  0  0  0  0  0  0  0  0  0  0  0
   -0.3692    1.4394   -0.6179 C   0  0  0  0  0  0  0  0  0  0  0  0
   -1.3546    0.3696   -0.1631 C   0  0  0  0  0  0  0  0  0  0  0  0
   -1.0166   -1.0242   -0.6561 C   0  0  0  0  0  0  0  0  0  0  0  0
    0.0551   -1.0695    0.4060 C   0  0  0  0  0  0  0  0  0  0  0  0
   -0.7558   -0.0369    1.1679 C   0  0  0  0  0  0  0  0  0  0  0  0
    0.1506    0.9578    1.5194 O   0  0  0  0  0  0  0  0  0  0  0  0
    2.6963   -1.5253    0.0203 H   0  0  0  0  0  0  0  0  0  0  0  0
    1.3248   -0.3172   -1.1904 H   0  0  0  0  0  0  0  0  0  0  0  0
    1.5811    1.8727    0.2962 H   0  0  0  0  0  0  0  0  0  0  0  0
   -0.0390    1.2998   -1.6529 H   0  0  0  0  0  0  0  0  0  0  0  0
   -0.7838    2.4240   -0.4033 H   0  0  0  0  0  0  0  0  0  0  0  0
   -2.4030    0.6496   -0.1654 H   0  0  0  0  0  0  0  0  0  0  0  0
   -0.5751   -1.0890   -1.6511 H   0  0  0  0  0  0  0  0  0  0  0  0
   -1.8301   -1.7126   -0.4021 H   0  0  0  0  0  0  0  0  0  0  0  0
    0.2421   -2.0103    0.8959 H   0  0  0  0  0  0  0  0  0  0  0  0
   -1.4296   -0.4001    1.9258 H   0  0  0  0  0  0  0  0  0  0  0  0
  1  2  1  0
  2  3  1  0
  3  4  1  0
  4  5  1  0
  5  6  1  0
  6  7  1  0
  7  8  1  0
  8  9  1  0
  7  2  1  0
  9  3  1  0
  8  5  1  0
  1 10  1  0
  2 11  1  0
  3 12  1  0
  4 13  1  0
  4 14  1  0
  5 15  1  0
  6 16  1  0
  6 17  1  0
  7 18  1  0
  8 19  1  0
M  END
