
     RDKit          3D

 21 21  0  0  0  0  0  0  0  0999 V2000
    2.8651   -0.6057    0.3549 O   0  0  0  0  0  0  0  0  0  0  0  0
    1.6052   -0.1491   -0.0916 C   0  0  0  0  0  0  0  0  0  0  0  0
    1.1820    1.0067    0.7040 C   0  0  0  0  0  0  0  0  0  0  0  0
   -0.0372    1.5400    0.6687 C   0  0  0  0  0  0  0  0  0  0  0  0
   -1.2783    1.2909   -0.0262 C   0  0  0  0  0  0  0  0  0  0  0  0
   -1.5877   -0.1022   -0.4305 C   0  0  0  0  0  0  0  0  0  0  0  0
   -2.1829   -0.7714    0.6411 O   0  0  0  0  0  0  0  0  0  0  0  0
   -0.4719   -0.8720   -1.0282 C   0  0  0  0  0  0  0  0  0  0  0  0
    0.6020   -1.2478   -0.0346 C   0  0  0  0  0  0  0  0  0  0  0  0
    3.0923   -0.2578    1.2348 H   0  0  0  0  0  0  0  0  0  0  0  0
    1.7829    0.1275   -1.1736 H   0  0  0  0  0  0  0  0  0  0  0  0
    1.9177    1.4666    1.3757 H   0  0  0  0  0  0  0  0  0  0  0  0
   -0.0908    2.4023    1.3626 H   0  0  0  0  0  0  0  0  0  0  0  0
   -1.2713    1.9129   -0.9735 H   0  0  0  0  0  0  0  0  0  0  0  0
   -2.1279    1.7090    0.5584 H   0  0  0  0  0  0  0  0  0  0  0  0
   -2.4010   -0.0825   -1.2162 H   0  0  0  0  0  0  0  0  0  0  0  0
   -1.8742   -1.7016    0.7369 H   0  0  0  0  0  0  0  0  0  0  0  0
   -0.0686   -0.3039   -1.8885 H   0  0  0  0  0  0  0  0  0  0  0  0
   -0.8781   -1.8173   -1.4438 H   0  0  0  0  0  0  0  0  0  0  0  0
    1.0578   -2.2136   -0.3086 H   0  0  0  0  0  0  0  0  0  0  0  0
    0.1650   -1.3309    0.9782 H   0  0  0  0  0  0  0  0  0  0  0  0
  1  2  1  0
  2  3  1  0
  3  4  2  0
  4  5  1  0
  5  6  1  0
  6  7  1  0
  6  8  1  0
  8  9  1  0
  9  2  1  0
  1 10  1  0
  2 11  1  0
  3 12  1  0
  4 13  1  0
  5 14  1  0
  5 15  1  0
  6 16  1  0
  7 17  1  0
  8 18  1  0
  8 19  1  0
  9 20  1  0
  9 21  1  0
M  END
