
     RDKit          3D

 19 20  0  0  0  0  0  0  0  0999 V2000
   -0.9829   -2.3349   -0.2257 O   0  0  0  0  0  0  0  0  0  0  0  0
   -0.5431   -1.0518   -0.5463 C   0  0  0  0  0  0  0  0  0  0  0  0
   -1.6167   -0.0760   -0.0470 C   0  0  0  0  0  0  0  0  0  0  0  0
   -1.2712    1.3540   -0.2867 C   0  0  0  0  0  0  0  0  0  0  0  0
    0.1716    1.5844   -0.1152 C   0  0  0  0  0  0  0  0  0  0  0  0
    1.0664    0.6721    0.1004 C   0  0  0  0  0  0  0  0  0  0  0  0
    2.4168    0.0898    0.3425 C   0  0  0  0  0  0  0  0  0  0  0  0
    1.9346   -1.0056   -0.4390 O   0  0  0  0  0  0  0  0  0  0  0  0
    0.7341   -0.8081    0.2258 C   0  0  0  0  0  0  0  0  0  0  0  0
   -1.0260   -2.3880    0.7622 H   0  0  0  0  0  0  0  0  0  0  0  0
   -0.3187   -0.9116   -1.6077 H   0  0  0  0  0  0  0  0  0  0  0  0
   -2.5532   -0.3938   -0.5620 H   0  0  0  0  0  0  0  0  0  0  0  0
   -1.7047   -0.2292    1.0470 H   0  0  0  0  0  0  0  0  0  0  0  0
   -1.5478    1.6072   -1.3525 H   0  0  0  0  0  0  0  0  0  0  0  0
   -1.8948    1.9956    0.3723 H   0  0  0  0  0  0  0  0  0  0  0  0
    0.5984    2.6184   -0.1643 H   0  0  0  0  0  0  0  0  0  0  0  0
    2.5707   -0.1838    1.3853 H   0  0  0  0  0  0  0  0  0  0  0  0
    3.2459    0.6211   -0.1445 H   0  0  0  0  0  0  0  0  0  0  0  0
    0.7208   -1.1598    1.2555 H   0  0  0  0  0  0  0  0  0  0  0  0
  1  2  1  0
  2  3  1  0
  3  4  1  0
  4  5  1  0
  5  6  2  0
  6  7  1  0
  7  8  1  0
  8  9  1  0
  9  2  1  0
  9  6  1  0
  1 10  1  0
  2 11  1  0
  3 12  1  0
  3 13  1  0
  4 14  1  0
  4 15  1  0
  5 16  1  0
  7 17  1  0
  7 18  1  0
  9 19  1  0
M  END
