
     RDKit          3D

 18 20  0  0  0  0  0  0  0  0999 V2000
    2.5179    0.8455   -0.2449 O   0  0  0  0  0  0  0  0  0  0  0  0
    1.6347   -0.1518    0.0547 C   0  0  0  0  0  0  0  0  0  0  0  0
    0.4843   -0.3536   -0.8847 C   0  0  0  0  0  0  0  0  0  0  0  0
   -0.0828    0.9140   -0.3206 C   0  0  0  0  0  0  0  0  0  0  0  0
   -1.5735    0.7470   -0.2712 C   0  0  0  0  0  0  0  0  0  0  0  0
   -1.6485   -0.7458    0.1002 C   0  0  0  0  0  0  0  0  0  0  0  0
   -0.1904   -1.0273    0.2774 C   0  0  0  0  0  0  0  0  0  0  0  0
    0.4406    0.1973    0.8853 C   0  0  0  0  0  0  0  0  0  0  0  0
    3.2114    0.8608    0.4644 H   0  0  0  0  0  0  0  0  0  0  0  0
    2.1149   -1.0796    0.4119 H   0  0  0  0  0  0  0  0  0  0  0  0
    0.5055   -0.6529   -1.8365 H   0  0  0  0  0  0  0  0  0  0  0  0
    0.3369    1.8560   -0.6045 H   0  0  0  0  0  0  0  0  0  0  0  0
   -2.0558    0.9369   -1.2375 H   0  0  0  0  0  0  0  0  0  0  0  0
   -1.9944    1.3509    0.5665 H   0  0  0  0  0  0  0  0  0  0  0  0
   -2.2351   -0.9142    1.0010 H   0  0  0  0  0  0  0  0  0  0  0  0
   -2.0132   -1.2746   -0.7911 H   0  0  0  0  0  0  0  0  0  0  0  0
    0.1393   -1.9937    0.5884 H   0  0  0  0  0  0  0  0  0  0  0  0
    0.4081    0.4851    1.8412 H   0  0  0  0  0  0  0  0  0  0  0  0
  1  2  1  0
  2  3  1  0
  3  4  1  0
  4  5  1  0
  5  6  1  0
  6  7  1  0
  7  8  1  0
  8  2  1  0
  7  3  1  0
  8  4  1  0
  1  9  1  0
  2 10  1  0
  3 11  1  0
  4 12  1  0
  5 13  1  0
  5 14  1  0
  6 15  1  0
  6 16  1  0
  7 17  1  0
  8 18  1  0
M  END
