
     RDKit          3D

 19 21  0  0  0  0  0  0  0  0999 V2000
    3.0463    0.0144   -0.6031 O   0  0  0  0  0  0  0  0  0  0  0  0
    1.7345   -0.4433   -0.5865 C   0  0  0  0  0  0  0  0  0  0  0  0
    0.9211    0.1408    0.5617 C   0  0  0  0  0  0  0  0  0  0  0  0
   -0.0605   -0.8252    1.1516 C   0  0  0  0  0  0  0  0  0  0  0  0
   -1.1683   -0.9405    0.1493 C   0  0  0  0  0  0  0  0  0  0  0  0
   -2.2209    0.1174    0.2565 C   0  0  0  0  0  0  0  0  0  0  0  0
   -1.8032    0.6497   -0.9737 O   0  0  0  0  0  0  0  0  0  0  0  0
   -0.7352   -0.2347   -1.0990 C   0  0  0  0  0  0  0  0  0  0  0  0
    0.5833    0.4266   -0.8253 C   0  0  0  0  0  0  0  0  0  0  0  0
    3.5155   -0.4901    0.1313 H   0  0  0  0  0  0  0  0  0  0  0  0
    1.6611   -1.5367   -0.7859 H   0  0  0  0  0  0  0  0  0  0  0  0
    1.3856    0.8681    1.2402 H   0  0  0  0  0  0  0  0  0  0  0  0
   -0.4703   -0.4848    2.1067 H   0  0  0  0  0  0  0  0  0  0  0  0
    0.4344   -1.8202    1.3379 H   0  0  0  0  0  0  0  0  0  0  0  0
   -1.5107   -1.9647   -0.0885 H   0  0  0  0  0  0  0  0  0  0  0  0
   -3.2600   -0.2781    0.2354 H   0  0  0  0  0  0  0  0  0  0  0  0
   -2.0211    0.8019    1.1063 H   0  0  0  0  0  0  0  0  0  0  0  0
   -0.7154   -0.8374   -2.0236 H   0  0  0  0  0  0  0  0  0  0  0  0
    0.6838    1.4284   -1.2913 H   0  0  0  0  0  0  0  0  0  0  0  0
  1  2  1  0
  2  3  1  0
  3  4  1  0
  4  5  1  0
  5  6  1  0
  6  7  1  0
  7  8  1  0
  8  9  1  0
  9  2  1  0
  9  3  1  0
  8  5  1  0
  1 10  1  0
  2 11  1  0
  3 12  1  0
  4 13  1  0
  4 14  1  0
  5 15  1  0
  6 16  1  0
  6 17  1  0
  8 18  1  0
  9 19  1  0
M  END
