
     RDKit          3D

 19 20  0  0  0  0  0  0  0  0999 V2000
    1.6220    1.7889    1.1071 O   0  0  0  0  0  0  0  0  0  0  0  0
    1.5142    0.9652   -0.0144 C   0  0  0  0  0  0  0  0  0  0  0  0
    1.5777   -0.5168    0.3043 C   0  0  0  0  0  0  0  0  0  0  0  0
    0.3990   -0.7099   -0.6091 C   0  0  0  0  0  0  0  0  0  0  0  0
   -0.6668   -1.5953   -0.1103 C   0  0  0  0  0  0  0  0  0  0  0  0
   -1.8272   -1.1340    0.3167 C   0  0  0  0  0  0  0  0  0  0  0  0
   -2.0511    0.3392    0.2865 C   0  0  0  0  0  0  0  0  0  0  0  0
   -0.8401    0.9431    0.6211 O   0  0  0  0  0  0  0  0  0  0  0  0
    0.0474    0.7178   -0.3974 C   0  0  0  0  0  0  0  0  0  0  0  0
    1.9738    2.6670    0.8318 H   0  0  0  0  0  0  0  0  0  0  0  0
    2.1442    1.2810   -0.8550 H   0  0  0  0  0  0  0  0  0  0  0  0
    2.4836   -0.9990   -0.0842 H   0  0  0  0  0  0  0  0  0  0  0  0
    1.4255   -0.7473    1.3580 H   0  0  0  0  0  0  0  0  0  0  0  0
    0.7254   -0.9922   -1.6349 H   0  0  0  0  0  0  0  0  0  0  0  0
   -0.5112   -2.6819   -0.0841 H   0  0  0  0  0  0  0  0  0  0  0  0
   -2.6211   -1.8127    0.6896 H   0  0  0  0  0  0  0  0  0  0  0  0
   -2.8672    0.5791    0.9752 H   0  0  0  0  0  0  0  0  0  0  0  0
   -2.3639    0.6665   -0.7240 H   0  0  0  0  0  0  0  0  0  0  0  0
   -0.1642    1.2414   -1.3635 H   0  0  0  0  0  0  0  0  0  0  0  0
  1  2  1  0
  2  3  1  0
  3  4  1  0
  4  5  1  0
  5  6  2  0
  6  7  1  0
  7  8  1  0
  8  9  1  0
  9  2  1  0
  9  4  1  0
  1 10  1  0
  2 11  1  0
  3 12  1  0
  3 13  1  0
  4 14  1  0
  5 15  1  0
  6 16  1  0
  7 17  1  0
  7 18  1  0
  9 19  1  0
M  END
