
     RDKit          3D

 19 20  0  0  0  0  0  0  0  0999 V2000
    1.9545    0.3011    1.6328 O   0  0  0  0  0  0  0  0  0  0  0  0
    1.8002    0.2736    0.2482 C   0  0  0  0  0  0  0  0  0  0  0  0
    1.0280    1.4469   -0.2238 C   0  0  0  0  0  0  0  0  0  0  0  0
   -0.1618    1.0562   -0.6035 C   0  0  0  0  0  0  0  0  0  0  0  0
   -0.3523   -0.3900   -0.4456 C   0  0  0  0  0  0  0  0  0  0  0  0
   -1.2316   -0.6187    0.7640 C   0  0  0  0  0  0  0  0  0  0  0  0
   -2.5935   -0.0223    0.7469 C   0  0  0  0  0  0  0  0  0  0  0  0
   -2.3711   -1.4001    0.6181 O   0  0  0  0  0  0  0  0  0  0  0  0
    1.0337   -0.9326   -0.2199 C   0  0  0  0  0  0  0  0  0  0  0  0
    2.6423   -0.3949    1.8486 H   0  0  0  0  0  0  0  0  0  0  0  0
    2.7928    0.3231   -0.2733 H   0  0  0  0  0  0  0  0  0  0  0  0
    1.4527    2.4627   -0.2267 H   0  0  0  0  0  0  0  0  0  0  0  0
   -0.9289    1.7461   -0.9971 H   0  0  0  0  0  0  0  0  0  0  0  0
   -0.8394   -0.8280   -1.3379 H   0  0  0  0  0  0  0  0  0  0  0  0
   -0.7179   -0.7627    1.7230 H   0  0  0  0  0  0  0  0  0  0  0  0
   -2.9472    0.4417   -0.1811 H   0  0  0  0  0  0  0  0  0  0  0  0
   -2.9643    0.3546    1.7298 H   0  0  0  0  0  0  0  0  0  0  0  0
    0.9502   -1.7282    0.5499 H   0  0  0  0  0  0  0  0  0  0  0  0
    1.4537   -1.3284   -1.1771 H   0  0  0  0  0  0  0  0  0  0  0  0
  1  2  1  0
  2  3  1  0
  3  4  2  0
  4  5  1  0
  5  6  1  0
  6  7  1  0
  7  8  1  0
  5  9  1  0
  9  2  1  0
  8  6  1  0
  1 10  1  0
  2 11  1  0
  3 12  1  0
  4 13  1  0
  5 14  1  0
  6 15  1  0
  7 16  1  0
  7 17  1  0
  9 18  1  0
  9 19  1  0
M  END
