
     RDKit          3D

 21 22  0  0  0  0  0  0  0  0999 V2000
    2.6976    0.4941    0.9890 O   0  0  0  0  0  0  0  0  0  0  0  0
    2.0708    0.0792   -0.1785 C   0  0  0  0  0  0  0  0  0  0  0  0
    1.0956    1.1383   -0.5569 C   0  0  0  0  0  0  0  0  0  0  0  0
   -0.0972    0.8506   -0.1277 C   0  0  0  0  0  0  0  0  0  0  0  0
   -1.5135    1.2079   -0.0129 C   0  0  0  0  0  0  0  0  0  0  0  0
   -2.1649   -0.1106   -0.4404 C   0  0  0  0  0  0  0  0  0  0  0  0
   -1.3307   -1.1537    0.2228 C   0  0  0  0  0  0  0  0  0  0  0  0
   -0.0421   -0.4784    0.6101 C   0  0  0  0  0  0  0  0  0  0  0  0
    1.1979   -1.1417    0.0556 C   0  0  0  0  0  0  0  0  0  0  0  0
    3.1825    1.3285    0.7671 H   0  0  0  0  0  0  0  0  0  0  0  0
    2.7708   -0.0918   -1.0164 H   0  0  0  0  0  0  0  0  0  0  0  0
    1.3782    2.0257   -1.1203 H   0  0  0  0  0  0  0  0  0  0  0  0
   -1.7972    1.4581    1.0282 H   0  0  0  0  0  0  0  0  0  0  0  0
   -1.8367    2.0004   -0.7144 H   0  0  0  0  0  0  0  0  0  0  0  0
   -3.2312   -0.1323   -0.1535 H   0  0  0  0  0  0  0  0  0  0  0  0
   -2.0096   -0.1758   -1.5310 H   0  0  0  0  0  0  0  0  0  0  0  0
   -1.1613   -1.9867   -0.4992 H   0  0  0  0  0  0  0  0  0  0  0  0
   -1.8756   -1.5456    1.1036 H   0  0  0  0  0  0  0  0  0  0  0  0
   -0.0180   -0.3096    1.6886 H   0  0  0  0  0  0  0  0  0  0  0  0
    1.6994   -1.8039    0.7742 H   0  0  0  0  0  0  0  0  0  0  0  0
    0.9853   -1.6527   -0.8879 H   0  0  0  0  0  0  0  0  0  0  0  0
  1  2  1  0
  2  3  1  0
  3  4  2  0
  4  5  1  0
  5  6  1  0
  6  7  1  0
  7  8  1  0
  8  9  1  0
  9  2  1  0
  8  4  1  0
  1 10  1  0
  2 11  1  0
  3 12  1  0
  5 13  1  0
  5 14  1  0
  6 15  1  0
  6 16  1  0
  7 17  1  0
  7 18  1  0
  8 19  1  0
  9 20  1  0
  9 21  1  0
M  END
