
     RDKit          3D

 16 17  0  0  0  0  0  0  0  0999 V2000
    1.9701   -0.8523   -0.4315 O   0  0  0  0  0  0  0  0  0  0  0  0
    1.1151   -0.3056    0.5145 C   0  0  0  0  0  0  0  0  0  0  0  0
    0.6774    1.1277    0.1779 C   0  0  0  0  0  0  0  0  0  0  0  0
    1.2562    1.7446   -0.9208 O   0  0  0  0  0  0  0  0  0  0  0  0
   -0.2313    0.0353    0.1473 C   0  0  0  0  0  0  0  0  0  0  0  0
   -1.4568   -0.1634    0.9405 C   0  0  0  0  0  0  0  0  0  0  0  0
   -1.8442   -1.1487    0.0321 O   0  0  0  0  0  0  0  0  0  0  0  0
   -1.0423   -0.5020   -0.9388 C   0  0  0  0  0  0  0  0  0  0  0  0
    2.3056   -1.7245   -0.0762 H   0  0  0  0  0  0  0  0  0  0  0  0
    1.4205   -0.5230    1.5561 H   0  0  0  0  0  0  0  0  0  0  0  0
    0.6753    1.8022    1.0843 H   0  0  0  0  0  0  0  0  0  0  0  0
    0.9851    1.3932   -1.7813 H   0  0  0  0  0  0  0  0  0  0  0  0
   -2.1562    0.7103    0.8157 H   0  0  0  0  0  0  0  0  0  0  0  0
   -1.3661   -0.4780    1.9864 H   0  0  0  0  0  0  0  0  0  0  0  0
   -0.6097   -1.3083   -1.5867 H   0  0  0  0  0  0  0  0  0  0  0  0
   -1.6987    0.1924   -1.5194 H   0  0  0  0  0  0  0  0  0  0  0  0
  1  2  1  0
  2  3  1  0
  3  4  1  0
  3  5  1  0
  5  6  1  0
  6  7  1  0
  7  8  1  0
  5  2  1  0
  8  5  1  0
  1  9  1  0
  2 10  1  0
  3 11  1  0
  4 12  1  0
  6 13  1  0
  6 14  1  0
  8 15  1  0
  8 16  1  0
M  END
