
     RDKit          3D

 17 19  0  0  0  0  0  0  0  0999 V2000
    2.2435    1.2366    0.2983 O   0  0  0  0  0  0  0  0  0  0  0  0
    1.0061    0.7907    0.7241 C   0  0  0  0  0  0  0  0  0  0  0  0
    0.7040   -0.6567    0.8687 C   0  0  0  0  0  0  0  0  0  0  0  0
    1.4648   -1.4972    0.0588 O   0  0  0  0  0  0  0  0  0  0  0  0
    0.9304   -0.9642   -1.1390 C   0  0  0  0  0  0  0  0  0  0  0  0
    0.2156    0.0460   -0.3114 C   0  0  0  0  0  0  0  0  0  0  0  0
   -1.2056    0.4089   -0.5530 C   0  0  0  0  0  0  0  0  0  0  0  0
   -2.1448    0.2957    0.5683 C   0  0  0  0  0  0  0  0  0  0  0  0
   -2.1910   -0.5610   -0.6502 O   0  0  0  0  0  0  0  0  0  0  0  0
    2.7549    0.5988   -0.2204 H   0  0  0  0  0  0  0  0  0  0  0  0
    0.4166    1.5584    1.2581 H   0  0  0  0  0  0  0  0  0  0  0  0
    0.0906   -1.0517    1.6757 H   0  0  0  0  0  0  0  0  0  0  0  0
    1.7479   -0.4693   -1.7306 H   0  0  0  0  0  0  0  0  0  0  0  0
    0.3293   -1.6901   -1.6888 H   0  0  0  0  0  0  0  0  0  0  0  0
   -1.3278    1.3431   -1.1781 H   0  0  0  0  0  0  0  0  0  0  0  0
   -3.0272    0.9961    0.6053 H   0  0  0  0  0  0  0  0  0  0  0  0
   -2.0075   -0.3840    1.4144 H   0  0  0  0  0  0  0  0  0  0  0  0
  1  2  1  0
  2  3  1  0
  3  4  1  0
  4  5  1  0
  5  6  1  0
  6  7  1  0
  7  8  1  0
  8  9  1  0
  6  2  1  0
  9  7  1  0
  6  3  1  0
  1 10  1  0
  2 11  1  0
  3 12  1  0
  5 13  1  0
  5 14  1  0
  7 15  1  0
  8 16  1  0
  8 17  1  0
M  END
