
     RDKit          3D

 19 20  0  0  0  0  0  0  0  0999 V2000
   -1.2461   -1.9870   -0.1470 O   0  0  0  0  0  0  0  0  0  0  0  0
   -1.0730   -0.8161    0.5683 C   0  0  0  0  0  0  0  0  0  0  0  0
   -2.2177    0.1411    0.3265 C   0  0  0  0  0  0  0  0  0  0  0  0
   -1.7560    1.3700    0.1751 C   0  0  0  0  0  0  0  0  0  0  0  0
   -0.2843    1.3470    0.3008 C   0  0  0  0  0  0  0  0  0  0  0  0
    0.0762   -0.0420   -0.0947 C   0  0  0  0  0  0  0  0  0  0  0  0
    1.3631   -0.5419    0.4237 C   0  0  0  0  0  0  0  0  0  0  0  0
    2.6636   -0.0773    0.0512 C   0  0  0  0  0  0  0  0  0  0  0  0
    2.1153   -1.2530   -0.6462 O   0  0  0  0  0  0  0  0  0  0  0  0
   -0.9287   -1.9032   -1.0823 H   0  0  0  0  0  0  0  0  0  0  0  0
   -0.8928   -0.9689    1.6435 H   0  0  0  0  0  0  0  0  0  0  0  0
   -3.2544   -0.1776    0.2902 H   0  0  0  0  0  0  0  0  0  0  0  0
   -2.3600    2.2753   -0.0148 H   0  0  0  0  0  0  0  0  0  0  0  0
    0.2125    2.1271   -0.3247 H   0  0  0  0  0  0  0  0  0  0  0  0
   -0.0401    1.5662    1.3633 H   0  0  0  0  0  0  0  0  0  0  0  0
   -0.0588   -0.1390   -1.1950 H   0  0  0  0  0  0  0  0  0  0  0  0
    1.3018   -1.2590    1.2781 H   0  0  0  0  0  0  0  0  0  0  0  0
    3.5413   -0.4022    0.6270 H   0  0  0  0  0  0  0  0  0  0  0  0
    2.8382    0.7405   -0.6724 H   0  0  0  0  0  0  0  0  0  0  0  0
  1  2  1  0
  2  3  1  0
  3  4  2  0
  4  5  1  0
  5  6  1  0
  6  7  1  0
  7  8  1  0
  8  9  1  0
  6  2  1  0
  9  7  1  0
  1 10  1  0
  2 11  1  0
  3 12  1  0
  4 13  1  0
  5 14  1  0
  5 15  1  0
  6 16  1  0
  7 17  1  0
  8 18  1  0
  8 19  1  0
M  END
