
     RDKit          3D

 21 21  0  0  0  0  0  0  0  0999 V2000
    2.9617   -0.6061   -0.1163 O   0  0  0  0  0  0  0  0  0  0  0  0
    1.6874   -0.1562    0.1154 C   0  0  0  0  0  0  0  0  0  0  0  0
    1.1386    0.7156   -0.9915 C   0  0  0  0  0  0  0  0  0  0  0  0
    0.0247    1.5102   -0.4110 C   0  0  0  0  0  0  0  0  0  0  0  0
   -1.2330    1.3384   -0.0630 C   0  0  0  0  0  0  0  0  0  0  0  0
   -2.1617    0.1581   -0.1092 C   0  0  0  0  0  0  0  0  0  0  0  0
   -1.5873   -1.0052    0.6678 C   0  0  0  0  0  0  0  0  0  0  0  0
   -0.3178   -0.7772    1.1401 O   0  0  0  0  0  0  0  0  0  0  0  0
    0.6870   -1.2862    0.3303 C   0  0  0  0  0  0  0  0  0  0  0  0
    3.6363   -0.1521    0.4777 H   0  0  0  0  0  0  0  0  0  0  0  0
    1.7068    0.4906    1.0347 H   0  0  0  0  0  0  0  0  0  0  0  0
    1.8801    1.3714   -1.4474 H   0  0  0  0  0  0  0  0  0  0  0  0
    0.7622    0.0406   -1.7922 H   0  0  0  0  0  0  0  0  0  0  0  0
    0.3474    2.5213   -0.2219 H   0  0  0  0  0  0  0  0  0  0  0  0
   -1.6632    2.2451    0.3337 H   0  0  0  0  0  0  0  0  0  0  0  0
   -3.1358    0.5111    0.3219 H   0  0  0  0  0  0  0  0  0  0  0  0
   -2.3682   -0.0904   -1.1631 H   0  0  0  0  0  0  0  0  0  0  0  0
   -1.7013   -1.9107    0.0603 H   0  0  0  0  0  0  0  0  0  0  0  0
   -2.2473   -1.1391    1.5753 H   0  0  0  0  0  0  0  0  0  0  0  0
    0.3136   -1.6936   -0.6186 H   0  0  0  0  0  0  0  0  0  0  0  0
    1.2698   -2.0856    0.8771 H   0  0  0  0  0  0  0  0  0  0  0  0
  1  2  1  0
  2  3  1  0
  3  4  1  0
  4  5  2  3
  5  6  1  0
  6  7  1  0
  7  8  1  0
  8  9  1  0
  9  2  1  0
  1 10  1  0
  2 11  1  0
  3 12  1  0
  3 13  1  0
  4 14  1  0
  5 15  1  0
  6 16  1  0
  6 17  1  0
  7 18  1  0
  7 19  1  0
  9 20  1  0
  9 21  1  0
M  END
