
     RDKit          3D

 16 18  0  0  0  0  0  0  0  0999 V2000
    0.2809    1.8800    0.1555 O   0  0  0  0  0  0  0  0  0  0  0  0
   -0.7700    0.9956    0.0679 C   0  0  0  0  0  0  0  0  0  0  0  0
   -0.4720   -0.2519    0.8733 C   0  0  0  0  0  0  0  0  0  0  0  0
   -1.3637   -0.9565   -0.1179 C   0  0  0  0  0  0  0  0  0  0  0  0
   -0.4970   -0.0666   -0.9706 C   0  0  0  0  0  0  0  0  0  0  0  0
    0.6258   -0.4658   -0.0852 C   0  0  0  0  0  0  0  0  0  0  0  0
    1.9458   -0.2420   -0.0937 C   0  0  0  0  0  0  0  0  0  0  0  0
    1.3408   -1.6075   -0.2185 O   0  0  0  0  0  0  0  0  0  0  0  0
    0.1544    2.5138    0.8954 H   0  0  0  0  0  0  0  0  0  0  0  0
   -1.7792    1.3860    0.1238 H   0  0  0  0  0  0  0  0  0  0  0  0
   -0.4998   -0.3317    1.8689 H   0  0  0  0  0  0  0  0  0  0  0  0
   -1.1492   -2.0363   -0.2730 H   0  0  0  0  0  0  0  0  0  0  0  0
   -2.4265   -0.6852   -0.0463 H   0  0  0  0  0  0  0  0  0  0  0  0
   -0.5270    0.0418   -1.9622 H   0  0  0  0  0  0  0  0  0  0  0  0
    2.5950   -0.1631    0.8077 H   0  0  0  0  0  0  0  0  0  0  0  0
    2.5416   -0.0106   -1.0251 H   0  0  0  0  0  0  0  0  0  0  0  0
  1  2  1  0
  2  3  1  0
  3  4  1  0
  4  5  1  0
  5  6  1  0
  6  7  1  0
  7  8  1  0
  5  2  1  0
  8  6  1  0
  6  3  1  0
  1  9  1  0
  2 10  1  0
  3 11  1  0
  4 12  1  0
  4 13  1  0
  5 14  1  0
  7 15  1  0
  7 16  1  0
M  END
