
     RDKit          3D

 21 22  0  0  0  0  0  0  0  0999 V2000
   -2.6552   -0.6821   -0.1658 O   0  0  0  0  0  0  0  0  0  0  0  0
   -1.4824   -0.2130    0.4585 C   0  0  0  0  0  0  0  0  0  0  0  0
   -1.1622    1.1014   -0.2094 C   0  0  0  0  0  0  0  0  0  0  0  0
    0.1969    1.6608    0.1859 C   0  0  0  0  0  0  0  0  0  0  0  0
    0.9973    0.5082    0.6637 C   0  0  0  0  0  0  0  0  0  0  0  0
    2.0097   -0.2720    0.0429 C   0  0  0  0  0  0  0  0  0  0  0  0
    2.6996   -1.2048    0.8143 O   0  0  0  0  0  0  0  0  0  0  0  0
    0.7077   -0.5815   -0.4086 C   0  0  0  0  0  0  0  0  0  0  0  0
   -0.4304   -1.2863    0.1946 C   0  0  0  0  0  0  0  0  0  0  0  0
   -3.1947   -1.2467    0.4189 H   0  0  0  0  0  0  0  0  0  0  0  0
   -1.7301   -0.1036    1.5198 H   0  0  0  0  0  0  0  0  0  0  0  0
   -1.2721    1.0342   -1.3071 H   0  0  0  0  0  0  0  0  0  0  0  0
   -1.9088    1.8305    0.1627 H   0  0  0  0  0  0  0  0  0  0  0  0
    0.6891    2.0878   -0.7156 H   0  0  0  0  0  0  0  0  0  0  0  0
    0.1098    2.4547    0.9568 H   0  0  0  0  0  0  0  0  0  0  0  0
    0.7623    0.2710    1.7330 H   0  0  0  0  0  0  0  0  0  0  0  0
    2.7152    0.2491   -0.6606 H   0  0  0  0  0  0  0  0  0  0  0  0
    3.4928   -1.5609    0.3422 H   0  0  0  0  0  0  0  0  0  0  0  0
    0.4327   -0.2165   -1.4458 H   0  0  0  0  0  0  0  0  0  0  0  0
   -0.1599   -1.6845    1.2129 H   0  0  0  0  0  0  0  0  0  0  0  0
   -0.8172   -2.1458   -0.3635 H   0  0  0  0  0  0  0  0  0  0  0  0
  1  2  1  0
  2  3  1  0
  3  4  1  0
  4  5  1  0
  5  6  1  0
  6  7  1  0
  6  8  1  0
  8  9  1  0
  9  2  1  0
  8  5  1  0
  1 10  1  0
  2 11  1  0
  3 12  1  0
  3 13  1  0
  4 14  1  0
  4 15  1  0
  5 16  1  0
  6 17  1  0
  7 18  1  0
  8 19  1  0
  9 20  1  0
  9 21  1  0
M  END
