
     RDKit          3D

 21 22  0  0  0  0  0  0  0  0999 V2000
    2.9565    1.0632   -0.0598 O   0  0  0  0  0  0  0  0  0  0  0  0
    1.7065    0.5380   -0.2939 C   0  0  0  0  0  0  0  0  0  0  0  0
    0.6215    1.3095    0.3649 C   0  0  0  0  0  0  0  0  0  0  0  0
   -0.6239    0.8339    0.2246 C   0  0  0  0  0  0  0  0  0  0  0  0
   -2.0653    0.8598    0.4415 C   0  0  0  0  0  0  0  0  0  0  0  0
   -2.1821   -0.5142   -0.1638 C   0  0  0  0  0  0  0  0  0  0  0  0
   -0.7647   -0.4110   -0.5686 C   0  0  0  0  0  0  0  0  0  0  0  0
    0.1808   -1.4245    0.0408 C   0  0  0  0  0  0  0  0  0  0  0  0
    1.6026   -0.9219    0.0405 C   0  0  0  0  0  0  0  0  0  0  0  0
    2.8243    2.0223    0.2195 H   0  0  0  0  0  0  0  0  0  0  0  0
    1.5030    0.6191   -1.4012 H   0  0  0  0  0  0  0  0  0  0  0  0
    0.8004    2.2180    0.9383 H   0  0  0  0  0  0  0  0  0  0  0  0
   -2.4258    0.9542    1.4850 H   0  0  0  0  0  0  0  0  0  0  0  0
   -2.6422    1.5942   -0.1837 H   0  0  0  0  0  0  0  0  0  0  0  0
   -2.3472   -1.2972    0.6150 H   0  0  0  0  0  0  0  0  0  0  0  0
   -2.9022   -0.5869   -1.0062 H   0  0  0  0  0  0  0  0  0  0  0  0
   -0.5401   -0.2600   -1.6378 H   0  0  0  0  0  0  0  0  0  0  0  0
    0.1258   -2.3919   -0.4719 H   0  0  0  0  0  0  0  0  0  0  0  0
   -0.0843   -1.6242    1.1048 H   0  0  0  0  0  0  0  0  0  0  0  0
    2.1640   -1.5269   -0.7255 H   0  0  0  0  0  0  0  0  0  0  0  0
    2.0923   -1.0538    1.0375 H   0  0  0  0  0  0  0  0  0  0  0  0
  1  2  1  0
  2  3  1  0
  3  4  2  0
  4  5  1  0
  5  6  1  0
  6  7  1  0
  7  8  1  0
  8  9  1  0
  9  2  1  0
  7  4  1  0
  1 10  1  0
  2 11  1  0
  3 12  1  0
  5 13  1  0
  5 14  1  0
  6 15  1  0
  6 16  1  0
  7 17  1  0
  8 18  1  0
  8 19  1  0
  9 20  1  0
  9 21  1  0
M  END
