
     RDKit          3D

 16 17  0  0  0  0  0  0  0  0999 V2000
   -2.1936    1.1754   -0.0151 O   0  0  0  0  0  0  0  0  0  0  0  0
   -0.9931    0.5334    0.3665 C   0  0  0  0  0  0  0  0  0  0  0  0
    0.1032    1.3028   -0.2771 C   0  0  0  0  0  0  0  0  0  0  0  0
    1.3124    0.7732   -0.4115 C   0  0  0  0  0  0  0  0  0  0  0  0
    1.4852   -0.6295    0.1236 C   0  0  0  0  0  0  0  0  0  0  0  0
    0.2937   -1.4493   -0.3087 C   0  0  0  0  0  0  0  0  0  0  0  0
   -0.5129   -1.8833    0.7888 O   0  0  0  0  0  0  0  0  0  0  0  0
   -0.9650   -0.8905   -0.0772 C   0  0  0  0  0  0  0  0  0  0  0  0
   -2.3822    1.8486    0.6889 H   0  0  0  0  0  0  0  0  0  0  0  0
   -0.8884    0.6068    1.4845 H   0  0  0  0  0  0  0  0  0  0  0  0
   -0.0249    2.3107   -0.6605 H   0  0  0  0  0  0  0  0  0  0  0  0
    2.1217    1.3089   -0.8732 H   0  0  0  0  0  0  0  0  0  0  0  0
    2.4065   -1.0270   -0.3017 H   0  0  0  0  0  0  0  0  0  0  0  0
    1.5997   -0.5747    1.2232 H   0  0  0  0  0  0  0  0  0  0  0  0
    0.5028   -2.1997   -1.0963 H   0  0  0  0  0  0  0  0  0  0  0  0
   -1.8651   -1.2056   -0.6542 H   0  0  0  0  0  0  0  0  0  0  0  0
  1  2  1  0
  2  3  1  0
  3  4  2  0
  4  5  1  0
  5  6  1  0
  6  7  1  0
  7  8  1  0
  8  2  1  0
  8  6  1  0
  1  9  1  0
  2 10  1  0
  3 11  1  0
  4 12  1  0
  5 13  1  0
  5 14  1  0
  6 15  1  0
  8 16  1  0
M  END
