
     RDKit          3D

 21 22  0  0  0  0  0  0  0  0999 V2000
    3.0399   -0.5319   -0.4253 O   0  0  0  0  0  0  0  0  0  0  0  0
    1.8242   -0.5353    0.2574 C   0  0  0  0  0  0  0  0  0  0  0  0
    1.3889    0.8629    0.5696 C   0  0  0  0  0  0  0  0  0  0  0  0
   -0.0986    0.7916    0.4418 C   0  0  0  0  0  0  0  0  0  0  0  0
   -1.2771    1.2227    0.8863 C   0  0  0  0  0  0  0  0  0  0  0  0
   -2.3818    0.5608    0.1097 C   0  0  0  0  0  0  0  0  0  0  0  0
   -1.6825   -0.7492   -0.2781 C   0  0  0  0  0  0  0  0  0  0  0  0
   -0.3243   -0.1913   -0.6658 C   0  0  0  0  0  0  0  0  0  0  0  0
    0.7746   -1.1873   -0.5749 C   0  0  0  0  0  0  0  0  0  0  0  0
    3.2393    0.3748   -0.7965 H   0  0  0  0  0  0  0  0  0  0  0  0
    1.9096   -1.0852    1.2296 H   0  0  0  0  0  0  0  0  0  0  0  0
    1.6218    1.1680    1.6116 H   0  0  0  0  0  0  0  0  0  0  0  0
    1.7672    1.6153   -0.1386 H   0  0  0  0  0  0  0  0  0  0  0  0
   -1.3585    1.9438    1.6909 H   0  0  0  0  0  0  0  0  0  0  0  0
   -3.2773    0.3930    0.7013 H   0  0  0  0  0  0  0  0  0  0  0  0
   -2.5126    1.1271   -0.8169 H   0  0  0  0  0  0  0  0  0  0  0  0
   -1.6058   -1.3298    0.6540 H   0  0  0  0  0  0  0  0  0  0  0  0
   -2.1807   -1.2572   -1.1027 H   0  0  0  0  0  0  0  0  0  0  0  0
   -0.4000    0.3353   -1.6280 H   0  0  0  0  0  0  0  0  0  0  0  0
    1.1596   -1.3914   -1.6036 H   0  0  0  0  0  0  0  0  0  0  0  0
    0.3740   -2.1367   -0.1218 H   0  0  0  0  0  0  0  0  0  0  0  0
  1  2  1  0
  2  3  1  0
  3  4  1  0
  4  5  2  0
  5  6  1  0
  6  7  1  0
  7  8  1  0
  8  9  1  0
  9  2  1  0
  8  4  1  0
  1 10  1  0
  2 11  1  0
  3 12  1  0
  3 13  1  0
  5 14  1  0
  6 15  1  0
  6 16  1  0
  7 17  1  0
  7 18  1  0
  8 19  1  0
  9 20  1  0
  9 21  1  0
M  END
