
     RDKit          3D

 17 19  0  0  0  0  0  0  0  0999 V2000
    2.1578   -0.1648    1.3603 O   0  0  0  0  0  0  0  0  0  0  0  0
    1.5804    0.5108    0.3038 C   0  0  0  0  0  0  0  0  0  0  0  0
    1.4158   -0.1385   -1.0073 C   0  0  0  0  0  0  0  0  0  0  0  0
    0.2402    0.1539   -0.1616 C   0  0  0  0  0  0  0  0  0  0  0  0
   -0.6932    1.0718   -0.5671 O   0  0  0  0  0  0  0  0  0  0  0  0
   -1.8513    0.8784    0.1553 C   0  0  0  0  0  0  0  0  0  0  0  0
   -1.9072   -0.6047    0.4253 C   0  0  0  0  0  0  0  0  0  0  0  0
   -1.5307   -1.5058   -0.5506 O   0  0  0  0  0  0  0  0  0  0  0  0
   -0.5168   -1.0368    0.3522 C   0  0  0  0  0  0  0  0  0  0  0  0
    3.1049    0.1030    1.4967 H   0  0  0  0  0  0  0  0  0  0  0  0
    1.8765    1.5938    0.2676 H   0  0  0  0  0  0  0  0  0  0  0  0
    1.7549   -1.2045   -1.0776 H   0  0  0  0  0  0  0  0  0  0  0  0
    1.4692    0.4299   -1.9632 H   0  0  0  0  0  0  0  0  0  0  0  0
   -1.7194    1.3910    1.1387 H   0  0  0  0  0  0  0  0  0  0  0  0
   -2.7036    1.2471   -0.4226 H   0  0  0  0  0  0  0  0  0  0  0  0
   -2.6281   -0.9523    1.1938 H   0  0  0  0  0  0  0  0  0  0  0  0
   -0.0493   -1.7723    1.0084 H   0  0  0  0  0  0  0  0  0  0  0  0
  1  2  1  0
  2  3  1  0
  3  4  1  0
  4  5  1  0
  5  6  1  0
  6  7  1  0
  7  8  1  0
  8  9  1  0
  4  2  1  0
  9  7  1  0
  9  4  1  0
  1 10  1  0
  2 11  1  0
  3 12  1  0
  3 13  1  0
  6 14  1  0
  6 15  1  0
  7 16  1  0
  9 17  1  0
M  END
