
     RDKit          3D

 15 17  0  0  0  0  0  0  0  0999 V2000
    1.8562   -0.7843    0.2037 O   0  0  0  0  0  0  0  0  0  0  0  0
    0.9758    0.1072   -0.3489 C   0  0  0  0  0  0  0  0  0  0  0  0
    0.0478   -0.5556   -1.3789 C   0  0  0  0  0  0  0  0  0  0  0  0
   -0.8775    0.4390   -1.5741 O   0  0  0  0  0  0  0  0  0  0  0  0
   -1.2756    0.7333   -0.2513 C   0  0  0  0  0  0  0  0  0  0  0  0
   -1.1237   -0.5782    0.4208 C   0  0  0  0  0  0  0  0  0  0  0  0
   -0.6228   -1.4587   -0.5586 O   0  0  0  0  0  0  0  0  0  0  0  0
   -0.1459    0.4994    0.6250 C   0  0  0  0  0  0  0  0  0  0  0  0
    0.1143    1.0558    1.8147 O   0  0  0  0  0  0  0  0  0  0  0  0
    2.6169   -0.2687    0.5767 H   0  0  0  0  0  0  0  0  0  0  0  0
    1.4288    0.9773   -0.8271 H   0  0  0  0  0  0  0  0  0  0  0  0
    0.5446   -0.9566   -2.2253 H   0  0  0  0  0  0  0  0  0  0  0  0
   -2.1348    1.3612   -0.0671 H   0  0  0  0  0  0  0  0  0  0  0  0
   -1.8506   -0.9152    1.1443 H   0  0  0  0  0  0  0  0  0  0  0  0
    0.4464    0.3442    2.4460 H   0  0  0  0  0  0  0  0  0  0  0  0
  1  2  1  0
  2  3  1  0
  3  4  1  0
  4  5  1  0
  5  6  1  0
  6  7  1  0
  6  8  1  0
  8  9  1  0
  8  2  1  0
  7  3  1  0
  8  5  1  0
  1 10  1  0
  2 11  1  0
  3 12  1  0
  5 13  1  0
  6 14  1  0
  9 15  1  0
M  END
