
     RDKit          3D

 17 19  0  0  0  0  0  0  0  0999 V2000
    1.3151    1.6709   -0.4048 O   0  0  0  0  0  0  0  0  0  0  0  0
    0.7484    0.7786    0.4543 C   0  0  0  0  0  0  0  0  0  0  0  0
    1.2517   -0.6584    0.2325 C   0  0  0  0  0  0  0  0  0  0  0  0
   -0.0373   -1.3402   -0.1106 C   0  0  0  0  0  0  0  0  0  0  0  0
   -0.8161   -0.3903   -0.9523 C   0  0  0  0  0  0  0  0  0  0  0  0
   -1.9499   -0.8954   -0.3346 O   0  0  0  0  0  0  0  0  0  0  0  0
   -1.1045   -0.7404    0.7484 C   0  0  0  0  0  0  0  0  0  0  0  0
   -0.7134    0.5761    0.1805 C   0  0  0  0  0  0  0  0  0  0  0  0
   -1.5515    1.6228    0.2480 O   0  0  0  0  0  0  0  0  0  0  0  0
    1.7104    1.3185   -1.2135 H   0  0  0  0  0  0  0  0  0  0  0  0
    0.9111    1.1108    1.4856 H   0  0  0  0  0  0  0  0  0  0  0  0
    2.0126   -0.7135   -0.5411 H   0  0  0  0  0  0  0  0  0  0  0  0
    1.5965   -1.0730    1.2081 H   0  0  0  0  0  0  0  0  0  0  0  0
   -0.0478   -2.3883   -0.3224 H   0  0  0  0  0  0  0  0  0  0  0  0
   -0.6999   -0.1974   -1.9350 H   0  0  0  0  0  0  0  0  0  0  0  0
   -1.3044   -0.9664    1.7121 H   0  0  0  0  0  0  0  0  0  0  0  0
   -1.3212    2.2854   -0.4552 H   0  0  0  0  0  0  0  0  0  0  0  0
  1  2  1  0
  2  3  1  0
  3  4  1  0
  4  5  1  0
  5  6  1  0
  6  7  1  0
  7  8  1  0
  8  9  1  0
  8  2  1  0
  7  4  1  0
  8  5  1  0
  1 10  1  0
  2 11  1  0
  3 12  1  0
  3 13  1  0
  4 14  1  0
  5 15  1  0
  7 16  1  0
  9 17  1  0
M  END
