
     RDKit          3D

 19 21  0  0  0  0  0  0  0  0999 V2000
    3.0116   -0.4399    0.7904 O   0  0  0  0  0  0  0  0  0  0  0  0
    1.9853   -0.4372   -0.1686 C   0  0  0  0  0  0  0  0  0  0  0  0
    1.5855    0.9940   -0.4879 C   0  0  0  0  0  0  0  0  0  0  0  0
    0.1355    0.7033   -0.1706 C   0  0  0  0  0  0  0  0  0  0  0  0
    0.6128   -0.6599    0.3772 C   0  0  0  0  0  0  0  0  0  0  0  0
   -0.4985   -0.5559   -0.6052 C   0  0  0  0  0  0  0  0  0  0  0  0
   -1.9104   -0.7826   -0.1676 C   0  0  0  0  0  0  0  0  0  0  0  0
   -2.9510    0.1489   -0.5558 C   0  0  0  0  0  0  0  0  0  0  0  0
   -2.5023    0.0002    0.7937 O   0  0  0  0  0  0  0  0  0  0  0  0
    3.5828    0.3565    0.5531 H   0  0  0  0  0  0  0  0  0  0  0  0
    2.2518   -1.0156   -1.0850 H   0  0  0  0  0  0  0  0  0  0  0  0
    2.0258    1.7507    0.1896 H   0  0  0  0  0  0  0  0  0  0  0  0
    1.7537    1.2406   -1.5543 H   0  0  0  0  0  0  0  0  0  0  0  0
   -0.3613    1.3807    0.5444 H   0  0  0  0  0  0  0  0  0  0  0  0
    0.4298   -0.8402    1.4421 H   0  0  0  0  0  0  0  0  0  0  0  0
   -0.2612   -0.9134   -1.6320 H   0  0  0  0  0  0  0  0  0  0  0  0
   -2.2001   -1.8671   -0.1199 H   0  0  0  0  0  0  0  0  0  0  0  0
   -3.9471   -0.2338   -0.8008 H   0  0  0  0  0  0  0  0  0  0  0  0
   -2.7429    1.1709   -0.9184 H   0  0  0  0  0  0  0  0  0  0  0  0
  1  2  1  0
  2  3  1  0
  3  4  1  0
  4  5  1  0
  5  6  1  0
  6  7  1  0
  7  8  1  0
  8  9  1  0
  5  2  1  0
  9  7  1  0
  6  4  1  0
  1 10  1  0
  2 11  1  0
  3 12  1  0
  3 13  1  0
  4 14  1  0
  5 15  1  0
  6 16  1  0
  7 17  1  0
  8 18  1  0
  8 19  1  0
M  END
