
     RDKit          3D

 17 18  0  0  0  0  0  0  0  0999 V2000
   -2.0329    1.4088   -0.2622 O   0  0  0  0  0  0  0  0  0  0  0  0
   -1.2975    0.4303    0.3863 C   0  0  0  0  0  0  0  0  0  0  0  0
   -1.3978   -0.9078   -0.2724 C   0  0  0  0  0  0  0  0  0  0  0  0
    0.0018   -1.4764   -0.3427 C   0  0  0  0  0  0  0  0  0  0  0  0
    0.8832   -0.3439   -0.0303 C   0  0  0  0  0  0  0  0  0  0  0  0
    2.2082    0.0511    0.0044 C   0  0  0  0  0  0  0  0  0  0  0  0
    2.2368    1.3596    0.4376 C   0  0  0  0  0  0  0  0  0  0  0  0
    0.9902    1.7297    0.6517 O   0  0  0  0  0  0  0  0  0  0  0  0
    0.1668    0.7510    0.3862 C   0  0  0  0  0  0  0  0  0  0  0  0
   -2.7943    1.7500    0.2883 H   0  0  0  0  0  0  0  0  0  0  0  0
   -1.6098    0.4377    1.4483 H   0  0  0  0  0  0  0  0  0  0  0  0
   -1.8789   -0.8788   -1.2672 H   0  0  0  0  0  0  0  0  0  0  0  0
   -2.0038   -1.6088    0.3678 H   0  0  0  0  0  0  0  0  0  0  0  0
    0.1994   -1.9135   -1.3643 H   0  0  0  0  0  0  0  0  0  0  0  0
    0.1707   -2.2714    0.4106 H   0  0  0  0  0  0  0  0  0  0  0  0
    3.0777   -0.5206   -0.2492 H   0  0  0  0  0  0  0  0  0  0  0  0
    3.0803    2.0032    0.5902 H   0  0  0  0  0  0  0  0  0  0  0  0
  1  2  1  0
  2  3  1  0
  3  4  1  0
  4  5  1  0
  5  6  1  0
  6  7  2  0
  7  8  1  0
  8  9  1  0
  9  2  1  0
  9  5  2  0
  1 10  1  0
  2 11  1  0
  3 12  1  0
  3 13  1  0
  4 14  1  0
  4 15  1  0
  6 16  1  0
  7 17  1  0
M  END
