
     RDKit          3D

 16 17  0  0  0  0  0  0  0  0999 V2000
   -1.7408   -1.2814    0.2304 O   0  0  0  0  0  0  0  0  0  0  0  0
   -0.9818   -0.3283   -0.4154 C   0  0  0  0  0  0  0  0  0  0  0  0
   -1.1153    1.0193    0.3204 C   0  0  0  0  0  0  0  0  0  0  0  0
   -0.1378    0.7466    1.3072 O   0  0  0  0  0  0  0  0  0  0  0  0
    1.0129    0.6319    0.5899 C   0  0  0  0  0  0  0  0  0  0  0  0
    1.4236    0.2646   -0.7631 C   0  0  0  0  0  0  0  0  0  0  0  0
    0.5230   -0.5035   -0.1120 C   0  0  0  0  0  0  0  0  0  0  0  0
    0.7969   -1.7635    0.4133 O   0  0  0  0  0  0  0  0  0  0  0  0
   -1.4022   -2.1759   -0.0315 H   0  0  0  0  0  0  0  0  0  0  0  0
   -1.1602   -0.2314   -1.4824 H   0  0  0  0  0  0  0  0  0  0  0  0
   -0.7756    1.7817   -0.3774 H   0  0  0  0  0  0  0  0  0  0  0  0
   -2.1096    1.1558    0.7446 H   0  0  0  0  0  0  0  0  0  0  0  0
    1.4731    1.5744    0.6924 H   0  0  0  0  0  0  0  0  0  0  0  0
    1.1421    0.8493   -1.6808 H   0  0  0  0  0  0  0  0  0  0  0  0
    2.5190   -0.0165   -0.8192 H   0  0  0  0  0  0  0  0  0  0  0  0
    0.5328   -1.7229    1.3835 H   0  0  0  0  0  0  0  0  0  0  0  0
  1  2  1  0
  2  3  1  0
  3  4  1  0
  4  5  1  0
  5  6  1  0
  6  7  1  0
  7  8  1  0
  7  2  1  0
  7  5  1  0
  1  9  1  0
  2 10  1  0
  3 11  1  0
  3 12  1  0
  5 13  1  0
  6 14  1  0
  6 15  1  0
  8 16  1  0
M  END
