
     RDKit          3D

 18 20  0  0  0  0  0  0  0  0999 V2000
   -0.8916    1.9821    0.1214 O   0  0  0  0  0  0  0  0  0  0  0  0
   -0.0444    1.0408    0.7497 C   0  0  0  0  0  0  0  0  0  0  0  0
    1.0698    0.7219   -0.1867 C   0  0  0  0  0  0  0  0  0  0  0  0
    1.9009   -0.4636    0.0755 C   0  0  0  0  0  0  0  0  0  0  0  0
    0.6954   -0.5115   -0.8672 C   0  0  0  0  0  0  0  0  0  0  0  0
   -0.5182   -1.1105   -0.2694 C   0  0  0  0  0  0  0  0  0  0  0  0
   -1.8246   -0.4846   -0.1951 C   0  0  0  0  0  0  0  0  0  0  0  0
   -0.8232   -0.2438    0.9007 C   0  0  0  0  0  0  0  0  0  0  0  0
   -0.6952    2.0130   -0.8455 H   0  0  0  0  0  0  0  0  0  0  0  0
    0.3359    1.4380    1.7040 H   0  0  0  0  0  0  0  0  0  0  0  0
    1.4205    1.5730   -0.8103 H   0  0  0  0  0  0  0  0  0  0  0  0
    1.8013   -0.9345    1.0770 H   0  0  0  0  0  0  0  0  0  0  0  0
    2.8417   -0.6775   -0.4236 H   0  0  0  0  0  0  0  0  0  0  0  0
    0.8834   -0.5991   -1.9541 H   0  0  0  0  0  0  0  0  0  0  0  0
   -0.4402   -2.2219   -0.0917 H   0  0  0  0  0  0  0  0  0  0  0  0
   -2.6932   -1.1740    0.0020 H   0  0  0  0  0  0  0  0  0  0  0  0
   -2.0677    0.3421   -0.8787 H   0  0  0  0  0  0  0  0  0  0  0  0
   -0.9507   -0.6899    1.8918 H   0  0  0  0  0  0  0  0  0  0  0  0
  1  2  1  0
  2  3  1  0
  3  4  1  0
  4  5  1  0
  5  6  1  0
  6  7  1  0
  7  8  1  0
  8  2  1  0
  5  3  1  0
  8  6  1  0
  1  9  1  0
  2 10  1  0
  3 11  1  0
  4 12  1  0
  4 13  1  0
  5 14  1  0
  6 15  1  0
  7 16  1  0
  7 17  1  0
  8 18  1  0
M  END
