
     RDKit          3D

 21 23  0  0  0  0  0  0  0  0999 V2000
   -2.7946   -0.1534   -0.4747 O   0  0  0  0  0  0  0  0  0  0  0  0
   -1.5043    0.1598   -0.9039 C   0  0  0  0  0  0  0  0  0  0  0  0
   -0.8874    1.3234   -0.1239 C   0  0  0  0  0  0  0  0  0  0  0  0
   -0.1483    0.4053    0.7771 C   0  0  0  0  0  0  0  0  0  0  0  0
    1.3382    0.5860    0.8219 C   0  0  0  0  0  0  0  0  0  0  0  0
    1.9521   -0.2564   -0.2376 C   0  0  0  0  0  0  0  0  0  0  0  0
    0.8381   -0.9791   -0.9480 C   0  0  0  0  0  0  0  0  0  0  0  0
   -0.4264   -0.7039   -0.2354 C   0  0  0  0  0  0  0  0  0  0  0  0
   -0.6461   -0.9126    1.1953 C   0  0  0  0  0  0  0  0  0  0  0  0
   -2.9807    0.1936    0.4453 H   0  0  0  0  0  0  0  0  0  0  0  0
   -1.4300    0.2328   -1.9877 H   0  0  0  0  0  0  0  0  0  0  0  0
   -0.2152    1.8808   -0.8398 H   0  0  0  0  0  0  0  0  0  0  0  0
   -1.6003    2.0254    0.3075 H   0  0  0  0  0  0  0  0  0  0  0  0
    1.6637    0.2827    1.8611 H   0  0  0  0  0  0  0  0  0  0  0  0
    1.5796    1.6649    0.7552 H   0  0  0  0  0  0  0  0  0  0  0  0
    2.5381    0.4088   -0.9121 H   0  0  0  0  0  0  0  0  0  0  0  0
    2.6233   -1.0001    0.2654 H   0  0  0  0  0  0  0  0  0  0  0  0
    1.0247   -2.0557   -1.0365 H   0  0  0  0  0  0  0  0  0  0  0  0
    0.7662   -0.5181   -1.9726 H   0  0  0  0  0  0  0  0  0  0  0  0
    0.0238   -1.5767    1.7276 H   0  0  0  0  0  0  0  0  0  0  0  0
   -1.7145   -1.0073    1.5158 H   0  0  0  0  0  0  0  0  0  0  0  0
  1  2  1  0
  2  3  1  0
  3  4  1  0
  4  5  1  0
  5  6  1  0
  6  7  1  0
  7  8  1  0
  8  9  1  0
  8  2  1  0
  8  4  1  0
  9  4  1  0
  1 10  1  0
  2 11  1  0
  3 12  1  0
  3 13  1  0
  5 14  1  0
  5 15  1  0
  6 16  1  0
  6 17  1  0
  7 18  1  0
  7 19  1  0
  9 20  1  0
  9 21  1  0
M  END
