
     RDKit          3D

 21 22  0  0  0  0  0  0  0  0999 V2000
    1.8901   -1.9923    0.0910 O   0  0  0  0  0  0  0  0  0  0  0  0
    1.2835   -0.8847   -0.4435 C   0  0  0  0  0  0  0  0  0  0  0  0
    2.1426    0.3886   -0.4202 C   0  0  0  0  0  0  0  0  0  0  0  0
    0.8116    1.1234   -0.1933 C   0  0  0  0  0  0  0  0  0  0  0  0
    0.3604   -0.1251    0.5146 C   0  0  0  0  0  0  0  0  0  0  0  0
   -1.0773   -0.4673    0.4227 C   0  0  0  0  0  0  0  0  0  0  0  0
   -1.7918   -0.2643   -0.8512 C   0  0  0  0  0  0  0  0  0  0  0  0
   -2.9187    0.1627   -0.1103 O   0  0  0  0  0  0  0  0  0  0  0  0
   -2.0046    0.6352    0.8548 C   0  0  0  0  0  0  0  0  0  0  0  0
    1.9775   -1.8808    1.0698 H   0  0  0  0  0  0  0  0  0  0  0  0
    0.7946   -1.0045   -1.4209 H   0  0  0  0  0  0  0  0  0  0  0  0
    2.6359    0.6271   -1.3582 H   0  0  0  0  0  0  0  0  0  0  0  0
    2.7452    0.4711    0.5081 H   0  0  0  0  0  0  0  0  0  0  0  0
    0.3633    1.3144   -1.1846 H   0  0  0  0  0  0  0  0  0  0  0  0
    0.9032    2.0214    0.4293 H   0  0  0  0  0  0  0  0  0  0  0  0
    0.7148   -0.1257    1.5578 H   0  0  0  0  0  0  0  0  0  0  0  0
   -1.2918   -1.4463    0.8710 H   0  0  0  0  0  0  0  0  0  0  0  0
   -1.4920    0.5368   -1.5214 H   0  0  0  0  0  0  0  0  0  0  0  0
   -1.9792   -1.2534   -1.3628 H   0  0  0  0  0  0  0  0  0  0  0  0
   -1.6343    1.6466    0.6771 H   0  0  0  0  0  0  0  0  0  0  0  0
   -2.4330    0.5171    1.8704 H   0  0  0  0  0  0  0  0  0  0  0  0
  1  2  1  0
  2  3  1  0
  3  4  1  0
  4  5  1  0
  5  6  1  0
  6  7  1  0
  7  8  1  0
  8  9  1  0
  5  2  1  0
  9  6  1  0
  1 10  1  0
  2 11  1  0
  3 12  1  0
  3 13  1  0
  4 14  1  0
  4 15  1  0
  5 16  1  0
  6 17  1  0
  7 18  1  0
  7 19  1  0
  9 20  1  0
  9 21  1  0
M  END
