
     RDKit          3D

 21 21  0  0  0  0  0  0  0  0999 V2000
   -2.0389   -1.8348    0.2269 O   0  0  0  0  0  0  0  0  0  0  0  0
   -1.3919   -0.7749   -0.3901 C   0  0  0  0  0  0  0  0  0  0  0  0
   -0.0649   -1.2463   -0.8433 C   0  0  0  0  0  0  0  0  0  0  0  0
    1.2172   -1.1275   -0.5231 C   0  0  0  0  0  0  0  0  0  0  0  0
    1.9559   -0.3951    0.5375 C   0  0  0  0  0  0  0  0  0  0  0  0
    1.2736    0.7033    1.0042 O   0  0  0  0  0  0  0  0  0  0  0  0
    0.8296    1.4525   -0.0764 C   0  0  0  0  0  0  0  0  0  0  0  0
   -0.6652    1.5907    0.0265 C   0  0  0  0  0  0  0  0  0  0  0  0
   -1.2995    0.3592    0.5933 C   0  0  0  0  0  0  0  0  0  0  0  0
   -1.8078   -1.9337    1.1865 H   0  0  0  0  0  0  0  0  0  0  0  0
   -1.9757   -0.4413   -1.2541 H   0  0  0  0  0  0  0  0  0  0  0  0
   -0.1762   -1.8902   -1.7071 H   0  0  0  0  0  0  0  0  0  0  0  0
    1.8426   -1.6943   -1.1915 H   0  0  0  0  0  0  0  0  0  0  0  0
    2.2447   -1.0967    1.3503 H   0  0  0  0  0  0  0  0  0  0  0  0
    2.9241   -0.0430    0.0944 H   0  0  0  0  0  0  0  0  0  0  0  0
    1.0562    0.9861   -1.0552 H   0  0  0  0  0  0  0  0  0  0  0  0
    1.2628    2.4641   -0.0882 H   0  0  0  0  0  0  0  0  0  0  0  0
   -0.9506    2.4419    0.7098 H   0  0  0  0  0  0  0  0  0  0  0  0
   -1.0655    1.7770   -1.0021 H   0  0  0  0  0  0  0  0  0  0  0  0
   -0.8124    0.0712    1.5443 H   0  0  0  0  0  0  0  0  0  0  0  0
   -2.3578    0.6319    0.8577 H   0  0  0  0  0  0  0  0  0  0  0  0
  1  2  1  0
  2  3  1  0
  3  4  2  3
  4  5  1  0
  5  6  1  0
  6  7  1  0
  7  8  1  0
  8  9  1  0
  9  2  1  0
  1 10  1  0
  2 11  1  0
  3 12  1  0
  4 13  1  0
  5 14  1  0
  5 15  1  0
  7 16  1  0
  7 17  1  0
  8 18  1  0
  8 19  1  0
  9 20  1  0
  9 21  1  0
M  END
