
     RDKit          3D

 17 18  0  0  0  0  0  0  0  0999 V2000
   -2.2070   -0.3273   -0.4848 O   0  0  0  0  0  0  0  0  0  0  0  0
   -0.8773   -0.3789   -0.8288 C   0  0  0  0  0  0  0  0  0  0  0  0
   -0.2401    0.9757   -0.4814 C   0  0  0  0  0  0  0  0  0  0  0  0
   -0.1946    0.8783    1.0045 C   0  0  0  0  0  0  0  0  0  0  0  0
   -0.2630   -0.3836    1.3999 C   0  0  0  0  0  0  0  0  0  0  0  0
   -0.0919   -1.2293    0.1814 C   0  0  0  0  0  0  0  0  0  0  0  0
    1.2460   -1.2267   -0.1399 O   0  0  0  0  0  0  0  0  0  0  0  0
    1.7986    0.0131   -0.2942 C   0  0  0  0  0  0  0  0  0  0  0  0
    1.0522    0.9041   -1.0290 O   0  0  0  0  0  0  0  0  0  0  0  0
   -2.5746    0.5420   -0.8383 H   0  0  0  0  0  0  0  0  0  0  0  0
   -0.6753   -0.6661   -1.8578 H   0  0  0  0  0  0  0  0  0  0  0  0
   -0.8259    1.8057   -0.8575 H   0  0  0  0  0  0  0  0  0  0  0  0
   -0.1159    1.7290    1.6704 H   0  0  0  0  0  0  0  0  0  0  0  0
   -0.4128   -0.7912    2.4002 H   0  0  0  0  0  0  0  0  0  0  0  0
   -0.4764   -2.2334    0.2772 H   0  0  0  0  0  0  0  0  0  0  0  0
    2.7968   -0.1261   -0.8019 H   0  0  0  0  0  0  0  0  0  0  0  0
    2.0613    0.5147    0.6801 H   0  0  0  0  0  0  0  0  0  0  0  0
  1  2  1  0
  2  3  1  0
  3  4  1  0
  4  5  2  0
  5  6  1  0
  6  7  1  0
  7  8  1  0
  8  9  1  0
  6  2  1  0
  9  3  1  0
  1 10  1  0
  2 11  1  0
  3 12  1  0
  4 13  1  0
  5 14  1  0
  6 15  1  0
  8 16  1  0
  8 17  1  0
M  END
