
     RDKit          3D

 19 19  0  0  0  0  0  0  0  0999 V2000
    2.6497   -0.8699   -0.0845 O   0  0  0  0  0  0  0  0  0  0  0  0
    1.3307   -0.5605   -0.2592 C   0  0  0  0  0  0  0  0  0  0  0  0
    0.4408   -1.6097    0.3135 C   0  0  0  0  0  0  0  0  0  0  0  0
   -0.8629   -1.3668    0.2388 C   0  0  0  0  0  0  0  0  0  0  0  0
   -1.2646   -0.0840   -0.4042 C   0  0  0  0  0  0  0  0  0  0  0  0
   -2.6319    0.1050   -0.3819 O   0  0  0  0  0  0  0  0  0  0  0  0
   -0.5344    1.0035    0.3743 C   0  0  0  0  0  0  0  0  0  0  0  0
   -0.8678    2.2627   -0.1148 O   0  0  0  0  0  0  0  0  0  0  0  0
    0.9301    0.7478    0.3942 C   0  0  0  0  0  0  0  0  0  0  0  0
    3.1953   -0.5397   -0.8376 H   0  0  0  0  0  0  0  0  0  0  0  0
    1.1186   -0.4622   -1.3628 H   0  0  0  0  0  0  0  0  0  0  0  0
    0.8582   -2.5071    0.7580 H   0  0  0  0  0  0  0  0  0  0  0  0
   -1.5819   -2.0612    0.6226 H   0  0  0  0  0  0  0  0  0  0  0  0
   -0.8825   -0.0511   -1.4429 H   0  0  0  0  0  0  0  0  0  0  0  0
   -2.9729   -0.1315   -1.2918 H   0  0  0  0  0  0  0  0  0  0  0  0
   -0.9317    0.9591    1.4148 H   0  0  0  0  0  0  0  0  0  0  0  0
   -0.8096    2.9024    0.6336 H   0  0  0  0  0  0  0  0  0  0  0  0
    1.2954    0.6676    1.4597 H   0  0  0  0  0  0  0  0  0  0  0  0
    1.5214    1.5953   -0.0297 H   0  0  0  0  0  0  0  0  0  0  0  0
  1  2  1  0
  2  3  1  0
  3  4  2  0
  4  5  1  0
  5  6  1  0
  5  7  1  0
  7  8  1  0
  7  9  1  0
  9  2  1  0
  1 10  1  0
  2 11  1  0
  3 12  1  0
  4 13  1  0
  5 14  1  0
  6 15  1  0
  7 16  1  0
  8 17  1  0
  9 18  1  0
  9 19  1  0
M  END
