
     RDKit          3D

 16 17  0  0  0  0  0  0  0  0999 V2000
    2.0173    1.5379   -0.2827 O   0  0  0  0  0  0  0  0  0  0  0  0
    1.4851    0.2674   -0.5971 C   0  0  0  0  0  0  0  0  0  0  0  0
    1.2814   -0.6092    0.6071 C   0  0  0  0  0  0  0  0  0  0  0  0
    0.1383    0.0069   -0.1389 C   0  0  0  0  0  0  0  0  0  0  0  0
   -0.8318   -0.9295   -0.7427 C   0  0  0  0  0  0  0  0  0  0  0  0
   -2.0205   -0.6335   -0.0595 O   0  0  0  0  0  0  0  0  0  0  0  0
   -1.8938    0.6032    0.4926 C   0  0  0  0  0  0  0  0  0  0  0  0
   -0.6010    1.0330    0.3964 O   0  0  0  0  0  0  0  0  0  0  0  0
    1.8894    1.7639    0.6679 H   0  0  0  0  0  0  0  0  0  0  0  0
    1.8970   -0.1424   -1.5327 H   0  0  0  0  0  0  0  0  0  0  0  0
    1.5700   -0.2255    1.6116 H   0  0  0  0  0  0  0  0  0  0  0  0
    1.4898   -1.6929    0.3931 H   0  0  0  0  0  0  0  0  0  0  0  0
   -1.0131   -0.8140   -1.8165 H   0  0  0  0  0  0  0  0  0  0  0  0
   -0.5878   -2.0035   -0.5367 H   0  0  0  0  0  0  0  0  0  0  0  0
   -2.6060    1.2942   -0.0222 H   0  0  0  0  0  0  0  0  0  0  0  0
   -2.2142    0.5439    1.5602 H   0  0  0  0  0  0  0  0  0  0  0  0
  1  2  1  0
  2  3  1  0
  3  4  1  0
  4  5  1  0
  5  6  1  0
  6  7  1  0
  7  8  1  0
  4  2  1  0
  8  4  1  0
  1  9  1  0
  2 10  1  0
  3 11  1  0
  3 12  1  0
  5 13  1  0
  5 14  1  0
  7 15  1  0
  7 16  1  0
M  END
