
     RDKit          3D

 21 22  0  0  0  0  0  0  0  0999 V2000
    2.7717    1.2664    0.8627 O   0  0  0  0  0  0  0  0  0  0  0  0
    2.6260   -0.0827    0.5635 C   0  0  0  0  0  0  0  0  0  0  0  0
    2.1677   -0.5371   -0.7679 C   0  0  0  0  0  0  0  0  0  0  0  0
    1.2055   -0.5255    0.3855 C   0  0  0  0  0  0  0  0  0  0  0  0
    0.0942    0.5044    0.3833 C   0  0  0  0  0  0  0  0  0  0  0  0
   -1.2053   -0.2256    0.1881 C   0  0  0  0  0  0  0  0  0  0  0  0
   -2.4388    0.6412    0.1584 C   0  0  0  0  0  0  0  0  0  0  0  0
   -2.8426   -0.4603   -0.7985 C   0  0  0  0  0  0  0  0  0  0  0  0
   -1.4918   -0.6028   -1.1122 O   0  0  0  0  0  0  0  0  0  0  0  0
    3.3921    1.7276    0.2437 H   0  0  0  0  0  0  0  0  0  0  0  0
    3.2994   -0.7558    1.1409 H   0  0  0  0  0  0  0  0  0  0  0  0
    2.4743   -1.5580   -1.0809 H   0  0  0  0  0  0  0  0  0  0  0  0
    2.0207    0.1502   -1.6164 H   0  0  0  0  0  0  0  0  0  0  0  0
    0.9239   -1.4757    0.8836 H   0  0  0  0  0  0  0  0  0  0  0  0
    0.2994    1.1993   -0.4774 H   0  0  0  0  0  0  0  0  0  0  0  0
    0.1294    1.1163    1.2843 H   0  0  0  0  0  0  0  0  0  0  0  0
   -1.3327   -1.0590    0.8768 H   0  0  0  0  0  0  0  0  0  0  0  0
   -2.3389    1.6246   -0.3010 H   0  0  0  0  0  0  0  0  0  0  0  0
   -3.0442    0.5622    1.0788 H   0  0  0  0  0  0  0  0  0  0  0  0
   -3.4867   -0.1497   -1.6393 H   0  0  0  0  0  0  0  0  0  0  0  0
   -3.2232   -1.3601   -0.2559 H   0  0  0  0  0  0  0  0  0  0  0  0
  1  2  1  0
  2  3  1  0
  3  4  1  0
  4  5  1  0
  5  6  1  0
  6  7  1  0
  7  8  1  0
  8  9  1  0
  4  2  1  0
  9  6  1  0
  1 10  1  0
  2 11  1  0
  3 12  1  0
  3 13  1  0
  4 14  1  0
  5 15  1  0
  5 16  1  0
  6 17  1  0
  7 18  1  0
  7 19  1  0
  8 20  1  0
  8 21  1  0
M  END
