
     RDKit          3D

 19 20  0  0  0  0  0  0  0  0999 V2000
    2.6935    1.2487    0.0925 O   0  0  0  0  0  0  0  0  0  0  0  0
    1.8404    0.2394    0.4429 C   0  0  0  0  0  0  0  0  0  0  0  0
    1.6031   -0.8215   -0.6464 C   0  0  0  0  0  0  0  0  0  0  0  0
    0.2552   -0.9444    0.0264 C   0  0  0  0  0  0  0  0  0  0  0  0
   -0.8301   -1.2315   -0.7826 O   0  0  0  0  0  0  0  0  0  0  0  0
   -2.0193   -0.7837   -0.1633 C   0  0  0  0  0  0  0  0  0  0  0  0
   -2.0379    0.7175   -0.1720 C   0  0  0  0  0  0  0  0  0  0  0  0
   -0.7016    1.2692    0.1310 C   0  0  0  0  0  0  0  0  0  0  0  0
    0.3774    0.5529    0.2282 C   0  0  0  0  0  0  0  0  0  0  0  0
    3.4792    1.2048    0.7245 H   0  0  0  0  0  0  0  0  0  0  0  0
    1.9781   -0.2486    1.4249 H   0  0  0  0  0  0  0  0  0  0  0  0
    2.2607   -1.6839   -0.5971 H   0  0  0  0  0  0  0  0  0  0  0  0
    1.4852   -0.3069   -1.6136 H   0  0  0  0  0  0  0  0  0  0  0  0
    0.2974   -1.4203    1.0048 H   0  0  0  0  0  0  0  0  0  0  0  0
   -2.0675   -1.1147    0.8901 H   0  0  0  0  0  0  0  0  0  0  0  0
   -2.8717   -1.1555   -0.7456 H   0  0  0  0  0  0  0  0  0  0  0  0
   -2.7345    1.0478    0.6333 H   0  0  0  0  0  0  0  0  0  0  0  0
   -2.3939    1.0903   -1.1601 H   0  0  0  0  0  0  0  0  0  0  0  0
   -0.6138    2.3405    0.2823 H   0  0  0  0  0  0  0  0  0  0  0  0
  1  2  1  0
  2  3  1  0
  3  4  1  0
  4  5  1  0
  5  6  1  0
  6  7  1  0
  7  8  1  0
  8  9  2  0
  9  2  1  0
  9  4  1  0
  1 10  1  0
  2 11  1  0
  3 12  1  0
  3 13  1  0
  4 14  1  0
  6 15  1  0
  6 16  1  0
  7 17  1  0
  7 18  1  0
  8 19  1  0
M  END
