
     RDKit          3D

 16 17  0  0  0  0  0  0  0  0999 V2000
    2.3025   -0.9232   -0.1206 O   0  0  0  0  0  0  0  0  0  0  0  0
    0.9773   -0.5989   -0.2429 C   0  0  0  0  0  0  0  0  0  0  0  0
    0.1162   -1.1359    0.8318 C   0  0  0  0  0  0  0  0  0  0  0  0
   -1.1409   -0.7191    0.8665 C   0  0  0  0  0  0  0  0  0  0  0  0
   -1.6758    0.2526   -0.1337 C   0  0  0  0  0  0  0  0  0  0  0  0
   -1.3170    0.0668   -1.4697 O   0  0  0  0  0  0  0  0  0  0  0  0
   -0.6881    1.0966   -0.7813 C   0  0  0  0  0  0  0  0  0  0  0  0
    0.7293    0.8998   -0.2836 C   0  0  0  0  0  0  0  0  0  0  0  0
    2.8128   -0.3628    0.4871 H   0  0  0  0  0  0  0  0  0  0  0  0
    0.5745   -0.9939   -1.2146 H   0  0  0  0  0  0  0  0  0  0  0  0
    0.5047   -1.8363    1.5512 H   0  0  0  0  0  0  0  0  0  0  0  0
   -1.7616   -1.1219    1.6614 H   0  0  0  0  0  0  0  0  0  0  0  0
   -2.7225    0.5454    0.0383 H   0  0  0  0  0  0  0  0  0  0  0  0
   -0.9415    2.1513   -1.0856 H   0  0  0  0  0  0  0  0  0  0  0  0
    0.7670    1.2423    0.7861 H   0  0  0  0  0  0  0  0  0  0  0  0
    1.4632    1.4374   -0.8906 H   0  0  0  0  0  0  0  0  0  0  0  0
  1  2  1  0
  2  3  1  0
  3  4  2  0
  4  5  1  0
  5  6  1  0
  6  7  1  0
  7  8  1  0
  8  2  1  0
  7  5  1  0
  1  9  1  0
  2 10  1  0
  3 11  1  0
  4 12  1  0
  5 13  1  0
  7 14  1  0
  8 15  1  0
  8 16  1  0
M  END
