
     RDKit          3D

 17 19  0  0  0  0  0  0  0  0999 V2000
    1.6442    0.5284    1.2626 O   0  0  0  0  0  0  0  0  0  0  0  0
    1.2435   -0.1317    0.1344 C   0  0  0  0  0  0  0  0  0  0  0  0
    0.3950   -1.3663    0.4648 C   0  0  0  0  0  0  0  0  0  0  0  0
   -0.7543   -1.0074    1.1266 O   0  0  0  0  0  0  0  0  0  0  0  0
   -1.4454   -0.1920    0.2346 C   0  0  0  0  0  0  0  0  0  0  0  0
   -0.8610    1.2254    0.2027 C   0  0  0  0  0  0  0  0  0  0  0  0
    0.2272    0.6533   -0.6900 C   0  0  0  0  0  0  0  0  0  0  0  0
   -0.7337   -0.4251   -1.0790 C   0  0  0  0  0  0  0  0  0  0  0  0
   -0.1082   -1.6457   -0.8288 O   0  0  0  0  0  0  0  0  0  0  0  0
    2.6088    0.7837    1.1368 H   0  0  0  0  0  0  0  0  0  0  0  0
    2.0625   -0.4688   -0.5270 H   0  0  0  0  0  0  0  0  0  0  0  0
    0.9644   -2.1763    0.8873 H   0  0  0  0  0  0  0  0  0  0  0  0
   -2.5258   -0.2545    0.2325 H   0  0  0  0  0  0  0  0  0  0  0  0
   -1.5227    1.9382   -0.2912 H   0  0  0  0  0  0  0  0  0  0  0  0
   -0.5175    1.5607    1.1760 H   0  0  0  0  0  0  0  0  0  0  0  0
    0.6244    1.3011   -1.4571 H   0  0  0  0  0  0  0  0  0  0  0  0
   -1.3015   -0.3230   -1.9852 H   0  0  0  0  0  0  0  0  0  0  0  0
  1  2  1  0
  2  3  1  0
  3  4  1  0
  4  5  1  0
  5  6  1  0
  6  7  1  0
  7  8  1  0
  8  9  1  0
  7  2  1  0
  9  3  1  0
  8  5  1  0
  1 10  1  0
  2 11  1  0
  3 12  1  0
  5 13  1  0
  6 14  1  0
  6 15  1  0
  7 16  1  0
  8 17  1  0
M  END
