
     RDKit          3D

 21 22  0  0  0  0  0  0  0  0999 V2000
    2.3906    0.2225    0.6478 O   0  0  0  0  0  0  0  0  0  0  0  0
    1.3946   -0.4582   -0.0900 C   0  0  0  0  0  0  0  0  0  0  0  0
    0.4651   -1.2242    0.7860 C   0  0  0  0  0  0  0  0  0  0  0  0
   -0.9667   -0.7846    0.6966 C   0  0  0  0  0  0  0  0  0  0  0  0
   -1.4263   -0.5215   -0.7119 C   0  0  0  0  0  0  0  0  0  0  0  0
   -0.6866    0.8121   -0.6087 C   0  0  0  0  0  0  0  0  0  0  0  0
   -1.2745    1.8683   -1.2380 O   0  0  0  0  0  0  0  0  0  0  0  0
    0.7378    0.5613   -0.9610 C   0  0  0  0  0  0  0  0  0  0  0  0
   -0.9514    0.7370    0.8906 C   0  0  0  0  0  0  0  0  0  0  0  0
    3.1927   -0.3334    0.7788 H   0  0  0  0  0  0  0  0  0  0  0  0
    1.9751   -1.2149   -0.6953 H   0  0  0  0  0  0  0  0  0  0  0  0
    0.5687   -2.3405    0.6785 H   0  0  0  0  0  0  0  0  0  0  0  0
    0.7853   -1.0313    1.8526 H   0  0  0  0  0  0  0  0  0  0  0  0
   -1.6244   -1.3349    1.3513 H   0  0  0  0  0  0  0  0  0  0  0  0
   -0.9742   -1.1436   -1.4980 H   0  0  0  0  0  0  0  0  0  0  0  0
   -2.5078   -0.3819   -0.7621 H   0  0  0  0  0  0  0  0  0  0  0  0
   -1.0575    2.6946   -0.6987 H   0  0  0  0  0  0  0  0  0  0  0  0
    0.7508    0.1484   -2.0118 H   0  0  0  0  0  0  0  0  0  0  0  0
    1.3170    1.5186   -1.0411 H   0  0  0  0  0  0  0  0  0  0  0  0
   -0.1432    1.0941    1.5313 H   0  0  0  0  0  0  0  0  0  0  0  0
   -1.9650    1.1120    1.1029 H   0  0  0  0  0  0  0  0  0  0  0  0
  1  2  1  0
  2  3  1  0
  3  4  1  0
  4  5  1  0
  5  6  1  0
  6  7  1  0
  6  8  1  0
  6  9  1  0
  8  2  1  0
  9  4  1  0
  1 10  1  0
  2 11  1  0
  3 12  1  0
  3 13  1  0
  4 14  1  0
  5 15  1  0
  5 16  1  0
  7 17  1  0
  8 18  1  0
  8 19  1  0
  9 20  1  0
  9 21  1  0
M  END
