
     RDKit          3D

 21 22  0  0  0  0  0  0  0  0999 V2000
    2.8277   -0.3765    0.5760 O   0  0  0  0  0  0  0  0  0  0  0  0
    1.6314   -0.7187   -0.0301 C   0  0  0  0  0  0  0  0  0  0  0  0
    1.0971    0.3116   -1.0186 C   0  0  0  0  0  0  0  0  0  0  0  0
    0.2900    0.8943    0.0813 C   0  0  0  0  0  0  0  0  0  0  0  0
   -1.1885    0.9706   -0.0924 C   0  0  0  0  0  0  0  0  0  0  0  0
   -1.6222    1.9142   -0.9859 O   0  0  0  0  0  0  0  0  0  0  0  0
   -1.6061   -0.4390   -0.4400 C   0  0  0  0  0  0  0  0  0  0  0  0
   -0.7369   -1.2619    0.4698 C   0  0  0  0  0  0  0  0  0  0  0  0
    0.4513   -0.4102    0.8454 C   0  0  0  0  0  0  0  0  0  0  0  0
    2.6786   -0.2538    1.5594 H   0  0  0  0  0  0  0  0  0  0  0  0
    1.5893   -1.7623   -0.3744 H   0  0  0  0  0  0  0  0  0  0  0  0
    1.9570    0.9407   -1.3527 H   0  0  0  0  0  0  0  0  0  0  0  0
    0.5784   -0.2027   -1.8346 H   0  0  0  0  0  0  0  0  0  0  0  0
    0.6955    1.7854    0.5666 H   0  0  0  0  0  0  0  0  0  0  0  0
   -1.6270    1.1718    0.9302 H   0  0  0  0  0  0  0  0  0  0  0  0
   -1.8527    2.7377   -0.4470 H   0  0  0  0  0  0  0  0  0  0  0  0
   -1.5029   -0.6813   -1.5037 H   0  0  0  0  0  0  0  0  0  0  0  0
   -2.6670   -0.6262   -0.1167 H   0  0  0  0  0  0  0  0  0  0  0  0
   -1.2218   -1.5816    1.3947 H   0  0  0  0  0  0  0  0  0  0  0  0
   -0.4066   -2.1540   -0.1351 H   0  0  0  0  0  0  0  0  0  0  0  0
    0.6356   -0.2581    1.9077 H   0  0  0  0  0  0  0  0  0  0  0  0
  1  2  1  0
  2  3  1  0
  3  4  1  0
  4  5  1  0
  5  6  1  0
  5  7  1  0
  7  8  1  0
  8  9  1  0
  9  2  1  0
  9  4  1  0
  1 10  1  0
  2 11  1  0
  3 12  1  0
  3 13  1  0
  4 14  1  0
  5 15  1  0
  6 16  1  0
  7 17  1  0
  7 18  1  0
  8 19  1  0
  8 20  1  0
  9 21  1  0
M  END
