
     RDKit          3D

 19 20  0  0  0  0  0  0  0  0999 V2000
    1.6739   -0.9538   -1.0610 O   0  0  0  0  0  0  0  0  0  0  0  0
    1.1015   -0.3820    0.0410 C   0  0  0  0  0  0  0  0  0  0  0  0
    0.6131    1.0541   -0.2414 C   0  0  0  0  0  0  0  0  0  0  0  0
    1.3629    1.9903    0.4136 O   0  0  0  0  0  0  0  0  0  0  0  0
   -0.7943    0.9271    0.2464 C   0  0  0  0  0  0  0  0  0  0  0  0
   -0.6896    0.0527    1.4757 C   0  0  0  0  0  0  0  0  0  0  0  0
   -0.1941   -0.9896    0.4694 C   0  0  0  0  0  0  0  0  0  0  0  0
   -1.2130   -0.3607   -0.4822 C   0  0  0  0  0  0  0  0  0  0  0  0
   -0.8470   -0.3886   -1.8107 O   0  0  0  0  0  0  0  0  0  0  0  0
    1.3668   -1.8966   -1.2046 H   0  0  0  0  0  0  0  0  0  0  0  0
    1.7581   -0.3146    0.9273 H   0  0  0  0  0  0  0  0  0  0  0  0
    0.5910    1.1547   -1.3391 H   0  0  0  0  0  0  0  0  0  0  0  0
    2.3253    1.8246    0.1642 H   0  0  0  0  0  0  0  0  0  0  0  0
   -1.4641    1.7423    0.2315 H   0  0  0  0  0  0  0  0  0  0  0  0
    0.0872    0.3181    2.1961 H   0  0  0  0  0  0  0  0  0  0  0  0
   -1.6382   -0.2891    1.8948 H   0  0  0  0  0  0  0  0  0  0  0  0
   -0.2842   -2.0084    0.7110 H   0  0  0  0  0  0  0  0  0  0  0  0
   -2.2591   -0.5975   -0.2627 H   0  0  0  0  0  0  0  0  0  0  0  0
   -1.4960   -0.8830   -2.3693 H   0  0  0  0  0  0  0  0  0  0  0  0
  1  2  1  0
  2  3  1  0
  3  4  1  0
  3  5  1  0
  5  6  1  0
  6  7  1  0
  7  8  1  0
  8  9  1  0
  7  2  1  0
  8  5  1  0
  1 10  1  0
  2 11  1  0
  3 12  1  0
  4 13  1  0
  5 14  1  0
  6 15  1  0
  6 16  1  0
  7 17  1  0
  8 18  1  0
  9 19  1  0
M  END
