
     RDKit          3D

 15 16  0  0  0  0  0  0  0  0999 V2000
   -1.7757    0.0837    1.2172 O   0  0  0  0  0  0  0  0  0  0  0  0
   -1.3397   -0.4009   -0.0203 C   0  0  0  0  0  0  0  0  0  0  0  0
   -0.0224   -1.1579    0.2125 C   0  0  0  0  0  0  0  0  0  0  0  0
    0.6663    0.1540    0.0056 C   0  0  0  0  0  0  0  0  0  0  0  0
    2.0014    0.3584   -0.0857 C   0  0  0  0  0  0  0  0  0  0  0  0
    1.1869    0.8705    1.0521 O   0  0  0  0  0  0  0  0  0  0  0  0
   -0.4894    0.6233   -0.7880 C   0  0  0  0  0  0  0  0  0  0  0  0
   -2.2891    0.9233    1.1406 H   0  0  0  0  0  0  0  0  0  0  0  0
   -2.0746   -0.9310   -0.6210 H   0  0  0  0  0  0  0  0  0  0  0  0
    0.1177   -1.9095   -0.5899 H   0  0  0  0  0  0  0  0  0  0  0  0
    0.1100   -1.5227    1.2431 H   0  0  0  0  0  0  0  0  0  0  0  0
    2.7579   -0.3496    0.3088 H   0  0  0  0  0  0  0  0  0  0  0  0
    2.4794    1.2593   -0.5420 H   0  0  0  0  0  0  0  0  0  0  0  0
   -0.8145    1.6613   -0.6735 H   0  0  0  0  0  0  0  0  0  0  0  0
   -0.5143    0.3381   -1.8596 H   0  0  0  0  0  0  0  0  0  0  0  0
  1  2  1  0
  2  3  1  0
  3  4  1  0
  4  5  1  0
  5  6  1  0
  4  7  1  0
  7  2  1  0
  6  4  1  0
  1  8  1  0
  2  9  1  0
  3 10  1  0
  3 11  1  0
  5 12  1  0
  5 13  1  0
  7 14  1  0
  7 15  1  0
M  END
