
     RDKit          3D

 21 22  0  0  0  0  0  0  0  0999 V2000
    1.5863   -0.6258   -1.2947 O   0  0  0  0  0  0  0  0  0  0  0  0
    1.3653   -0.9098    0.0387 C   0  0  0  0  0  0  0  0  0  0  0  0
    2.0269    0.2174    0.8478 C   0  0  0  0  0  0  0  0  0  0  0  0
    1.0632    1.3226    0.5897 C   0  0  0  0  0  0  0  0  0  0  0  0
   -0.1455    0.8480    0.3208 C   0  0  0  0  0  0  0  0  0  0  0  0
   -1.5549    1.1805   -0.0193 C   0  0  0  0  0  0  0  0  0  0  0  0
   -2.2104   -0.1181   -0.3730 C   0  0  0  0  0  0  0  0  0  0  0  0
   -1.0326   -0.9971   -0.7422 C   0  0  0  0  0  0  0  0  0  0  0  0
   -0.0731   -0.6652    0.3843 C   0  0  0  0  0  0  0  0  0  0  0  0
    2.4575   -0.1637   -1.3732 H   0  0  0  0  0  0  0  0  0  0  0  0
    1.7128   -1.8939    0.3561 H   0  0  0  0  0  0  0  0  0  0  0  0
    3.0403    0.4244    0.5042 H   0  0  0  0  0  0  0  0  0  0  0  0
    2.0277   -0.0900    1.9170 H   0  0  0  0  0  0  0  0  0  0  0  0
    1.3357    2.3696    0.6227 H   0  0  0  0  0  0  0  0  0  0  0  0
   -2.0271    1.6209    0.8847 H   0  0  0  0  0  0  0  0  0  0  0  0
   -1.6210    1.8451   -0.9009 H   0  0  0  0  0  0  0  0  0  0  0  0
   -2.7108   -0.5892    0.5098 H   0  0  0  0  0  0  0  0  0  0  0  0
   -2.9508   -0.0477   -1.1817 H   0  0  0  0  0  0  0  0  0  0  0  0
   -0.5865   -0.6297   -1.6790 H   0  0  0  0  0  0  0  0  0  0  0  0
   -1.3178   -2.0501   -0.7661 H   0  0  0  0  0  0  0  0  0  0  0  0
   -0.3852   -1.0486    1.3543 H   0  0  0  0  0  0  0  0  0  0  0  0
  1  2  1  0
  2  3  1  0
  3  4  1  0
  4  5  2  0
  5  6  1  0
  6  7  1  0
  7  8  1  0
  8  9  1  0
  9  2  1  0
  9  5  1  0
  1 10  1  0
  2 11  1  0
  3 12  1  0
  3 13  1  0
  4 14  1  0
  6 15  1  0
  6 16  1  0
  7 17  1  0
  7 18  1  0
  8 19  1  0
  8 20  1  0
  9 21  1  0
M  END
