
     RDKit          3D

 19 20  0  0  0  0  0  0  0  0999 V2000
    1.4426    1.5898    0.8225 O   0  0  0  0  0  0  0  0  0  0  0  0
    1.0878    0.2325    0.6695 C   0  0  0  0  0  0  0  0  0  0  0  0
    1.7789   -0.3548   -0.5695 C   0  0  0  0  0  0  0  0  0  0  0  0
    0.5123    0.0575   -1.3366 C   0  0  0  0  0  0  0  0  0  0  0  0
   -0.1877   -0.0057   -0.0175 C   0  0  0  0  0  0  0  0  0  0  0  0
   -1.4847    0.5160    0.2770 C   0  0  0  0  0  0  0  0  0  0  0  0
   -1.8192    1.1286    1.4913 O   0  0  0  0  0  0  0  0  0  0  0  0
   -1.1869   -0.9928    0.3401 C   0  0  0  0  0  0  0  0  0  0  0  0
   -1.6884   -1.8020   -0.6558 O   0  0  0  0  0  0  0  0  0  0  0  0
    2.2895    1.6401    1.3455 H   0  0  0  0  0  0  0  0  0  0  0  0
    1.2259   -0.3650    1.5817 H   0  0  0  0  0  0  0  0  0  0  0  0
    1.7915   -1.4582   -0.5123 H   0  0  0  0  0  0  0  0  0  0  0  0
    2.6887    0.1529   -0.8756 H   0  0  0  0  0  0  0  0  0  0  0  0
    0.1728   -0.6605   -2.0815 H   0  0  0  0  0  0  0  0  0  0  0  0
    0.6586    1.1082   -1.6714 H   0  0  0  0  0  0  0  0  0  0  0  0
   -2.1452    0.8292   -0.5795 H   0  0  0  0  0  0  0  0  0  0  0  0
   -1.3703    2.0141    1.5354 H   0  0  0  0  0  0  0  0  0  0  0  0
   -1.2030   -1.4533    1.3675 H   0  0  0  0  0  0  0  0  0  0  0  0
   -2.5632   -2.1768   -0.4395 H   0  0  0  0  0  0  0  0  0  0  0  0
  1  2  1  0
  2  3  1  0
  3  4  1  0
  4  5  1  0
  5  6  1  0
  6  7  1  0
  6  8  1  0
  8  9  1  0
  5  2  1  0
  8  5  1  0
  1 10  1  0
  2 11  1  0
  3 12  1  0
  3 13  1  0
  4 14  1  0
  4 15  1  0
  6 16  1  0
  7 17  1  0
  8 18  1  0
  9 19  1  0
M  END
