
     RDKit          3D

 19 20  0  0  0  0  0  0  0  0999 V2000
   -2.4481   -0.9032    0.2926 O   0  0  0  0  0  0  0  0  0  0  0  0
   -1.2141   -0.3897   -0.1468 C   0  0  0  0  0  0  0  0  0  0  0  0
   -0.2326   -1.5065   -0.0011 C   0  0  0  0  0  0  0  0  0  0  0  0
    1.0612   -1.3734    0.2348 C   0  0  0  0  0  0  0  0  0  0  0  0
    1.9936   -0.2754    0.4323 C   0  0  0  0  0  0  0  0  0  0  0  0
    1.4946    0.9125    0.8876 O   0  0  0  0  0  0  0  0  0  0  0  0
    0.4706    1.3080    0.0869 C   0  0  0  0  0  0  0  0  0  0  0  0
   -0.6749    2.1100    0.4318 C   0  0  0  0  0  0  0  0  0  0  0  0
   -0.8015    0.7102    0.7461 C   0  0  0  0  0  0  0  0  0  0  0  0
   -2.5505   -1.8287   -0.0589 H   0  0  0  0  0  0  0  0  0  0  0  0
   -1.3353   -0.1193   -1.2061 H   0  0  0  0  0  0  0  0  0  0  0  0
   -0.6234   -2.5258   -0.0993 H   0  0  0  0  0  0  0  0  0  0  0  0
    1.5508   -2.3646    0.2955 H   0  0  0  0  0  0  0  0  0  0  0  0
    2.8594   -0.5823    1.0883 H   0  0  0  0  0  0  0  0  0  0  0  0
    2.4852   -0.0645   -0.5634 H   0  0  0  0  0  0  0  0  0  0  0  0
    0.6472    1.0917   -0.9881 H   0  0  0  0  0  0  0  0  0  0  0  0
   -1.2633    2.5550   -0.4159 H   0  0  0  0  0  0  0  0  0  0  0  0
   -0.6840    2.8329    1.3002 H   0  0  0  0  0  0  0  0  0  0  0  0
   -0.7349    0.4131    1.8173 H   0  0  0  0  0  0  0  0  0  0  0  0
  1  2  1  0
  2  3  1  0
  3  4  2  0
  4  5  1  0
  5  6  1  0
  6  7  1  0
  7  8  1  0
  8  9  1  0
  9  2  1  0
  9  7  1  0
  1 10  1  0
  2 11  1  0
  3 12  1  0
  4 13  1  0
  5 14  1  0
  5 15  1  0
  7 16  1  0
  8 17  1  0
  8 18  1  0
  9 19  1  0
M  END
