
     RDKit          3D

 19 20  0  0  0  0  0  0  0  0999 V2000
    1.9393   -1.2057    1.1412 O   0  0  0  0  0  0  0  0  0  0  0  0
    0.8796   -0.3222    0.8255 C   0  0  0  0  0  0  0  0  0  0  0  0
    1.5075    0.7302   -0.0840 C   0  0  0  0  0  0  0  0  0  0  0  0
    0.4579    1.5205   -0.7668 C   0  0  0  0  0  0  0  0  0  0  0  0
   -0.7495    1.0538   -1.0290 C   0  0  0  0  0  0  0  0  0  0  0  0
   -1.1492   -0.2922   -0.6626 C   0  0  0  0  0  0  0  0  0  0  0  0
   -1.9831   -0.4177    0.6136 C   0  0  0  0  0  0  0  0  0  0  0  0
   -1.2255   -1.5617    0.8996 O   0  0  0  0  0  0  0  0  0  0  0  0
   -0.1676   -1.0845    0.1053 C   0  0  0  0  0  0  0  0  0  0  0  0
    2.5332   -1.2904    0.3506 H   0  0  0  0  0  0  0  0  0  0  0  0
    0.5576    0.1058    1.7915 H   0  0  0  0  0  0  0  0  0  0  0  0
    2.1654    1.4121    0.4879 H   0  0  0  0  0  0  0  0  0  0  0  0
    2.0699    0.1712   -0.8570 H   0  0  0  0  0  0  0  0  0  0  0  0
    0.7314    2.5493   -1.0590 H   0  0  0  0  0  0  0  0  0  0  0  0
   -1.4493    1.7033   -1.5308 H   0  0  0  0  0  0  0  0  0  0  0  0
   -1.5971   -0.8988   -1.5017 H   0  0  0  0  0  0  0  0  0  0  0  0
   -1.7562    0.3890    1.3274 H   0  0  0  0  0  0  0  0  0  0  0  0
   -3.0375   -0.5927    0.3783 H   0  0  0  0  0  0  0  0  0  0  0  0
    0.2731   -1.9696   -0.4302 H   0  0  0  0  0  0  0  0  0  0  0  0
  1  2  1  0
  2  3  1  0
  3  4  1  0
  4  5  2  0
  5  6  1  0
  6  7  1  0
  7  8  1  0
  8  9  1  0
  9  2  1  0
  9  6  1  0
  1 10  1  0
  2 11  1  0
  3 12  1  0
  3 13  1  0
  4 14  1  0
  5 15  1  0
  6 16  1  0
  7 17  1  0
  7 18  1  0
  9 19  1  0
M  END
