
     RDKit          3D

 17 18  0  0  0  0  0  0  0  0999 V2000
    0.2347   -1.3132    1.4763 O   0  0  0  0  0  0  0  0  0  0  0  0
   -0.5050   -1.2450    0.2924 C   0  0  0  0  0  0  0  0  0  0  0  0
   -1.6569   -0.2647    0.5573 C   0  0  0  0  0  0  0  0  0  0  0  0
   -0.8908    0.9035    0.7820 O   0  0  0  0  0  0  0  0  0  0  0  0
   -0.0412    0.9887   -0.2914 C   0  0  0  0  0  0  0  0  0  0  0  0
    1.3258    0.4175   -0.2779 C   0  0  0  0  0  0  0  0  0  0  0  0
    1.8729    0.1414    0.9772 O   0  0  0  0  0  0  0  0  0  0  0  0
    0.2483   -0.4411   -0.7472 C   0  0  0  0  0  0  0  0  0  0  0  0
   -0.0326   -0.6807   -2.0757 O   0  0  0  0  0  0  0  0  0  0  0  0
   -0.0539   -0.6312    2.1422 H   0  0  0  0  0  0  0  0  0  0  0  0
   -0.8511   -2.2079   -0.0706 H   0  0  0  0  0  0  0  0  0  0  0  0
   -2.2574   -0.1337   -0.3713 H   0  0  0  0  0  0  0  0  0  0  0  0
   -2.2297   -0.5667    1.4285 H   0  0  0  0  0  0  0  0  0  0  0  0
   -0.3157    1.7255   -1.0573 H   0  0  0  0  0  0  0  0  0  0  0  0
    2.0202    0.8568   -1.0333 H   0  0  0  0  0  0  0  0  0  0  0  0
    2.8357   -0.0668    0.9297 H   0  0  0  0  0  0  0  0  0  0  0  0
    0.2966    0.0207   -2.6609 H   0  0  0  0  0  0  0  0  0  0  0  0
  1  2  1  0
  2  3  1  0
  3  4  1  0
  4  5  1  0
  5  6  1  0
  6  7  1  0
  6  8  1  0
  8  9  1  0
  8  2  1  0
  8  5  1  0
  1 10  1  0
  2 11  1  0
  3 12  1  0
  3 13  1  0
  5 14  1  0
  6 15  1  0
  7 16  1  0
  9 17  1  0
M  END
