
     RDKit          3D

 19 21  0  0  0  0  0  0  0  0999 V2000
    2.5576   -0.1390    0.5103 O   0  0  0  0  0  0  0  0  0  0  0  0
    1.3311   -0.4513   -0.0455 C   0  0  0  0  0  0  0  0  0  0  0  0
    0.9468    0.5076   -1.1384 C   0  0  0  0  0  0  0  0  0  0  0  0
   -0.5642    0.6507   -0.9290 C   0  0  0  0  0  0  0  0  0  0  0  0
   -1.3053   -0.6711   -0.9597 C   0  0  0  0  0  0  0  0  0  0  0  0
   -1.1083   -0.7269    0.5606 C   0  0  0  0  0  0  0  0  0  0  0  0
    0.2541   -0.3950    1.0051 C   0  0  0  0  0  0  0  0  0  0  0  0
   -0.6627    0.6471    0.5448 C   0  0  0  0  0  0  0  0  0  0  0  0
   -1.1303    1.6773    1.2772 O   0  0  0  0  0  0  0  0  0  0  0  0
    2.6468   -0.4543    1.4393 H   0  0  0  0  0  0  0  0  0  0  0  0
    1.3287   -1.4745   -0.5074 H   0  0  0  0  0  0  0  0  0  0  0  0
    1.3633    1.5215   -0.9160 H   0  0  0  0  0  0  0  0  0  0  0  0
    1.1717    0.1486   -2.1440 H   0  0  0  0  0  0  0  0  0  0  0  0
   -1.0291    1.4738   -1.4856 H   0  0  0  0  0  0  0  0  0  0  0  0
   -0.7025   -1.4808   -1.4097 H   0  0  0  0  0  0  0  0  0  0  0  0
   -2.3552   -0.6041   -1.2489 H   0  0  0  0  0  0  0  0  0  0  0  0
   -1.9002   -1.1036    1.1933 H   0  0  0  0  0  0  0  0  0  0  0  0
    0.5071   -0.5748    2.0643 H   0  0  0  0  0  0  0  0  0  0  0  0
   -1.3494    1.4491    2.1894 H   0  0  0  0  0  0  0  0  0  0  0  0
  1  2  1  0
  2  3  1  0
  3  4  1  0
  4  5  1  0
  5  6  1  0
  6  7  1  0
  7  8  1  0
  8  9  1  0
  7  2  1  0
  8  4  1  0
  8  6  1  0
  1 10  1  0
  2 11  1  0
  3 12  1  0
  3 13  1  0
  4 14  1  0
  5 15  1  0
  5 16  1  0
  6 17  1  0
  7 18  1  0
  9 19  1  0
M  END
