
     RDKit          3D

 23 24  0  0  0  0  0  0  0  0999 V2000
   -0.0706    0.5729   -2.0089 O   0  0  0  0  0  0  0  0  0  0  0  0
   -0.4567   -0.1389   -0.8956 C   0  0  0  0  0  0  0  0  0  0  0  0
   -1.9757   -0.0792   -0.7581 C   0  0  0  0  0  0  0  0  0  0  0  0
   -2.2726    0.1809    0.6948 C   0  0  0  0  0  0  0  0  0  0  0  0
   -0.9620   -0.1472    1.3776 C   0  0  0  0  0  0  0  0  0  0  0  0
    0.0223    0.4658    0.3944 C   0  0  0  0  0  0  0  0  0  0  0  0
    1.4196    0.1276    0.7758 C   0  0  0  0  0  0  0  0  0  0  0  0
    2.5110    0.5572   -0.2259 C   0  0  0  0  0  0  0  0  0  0  0  0
    2.2369   -0.8947    0.1120 C   0  0  0  0  0  0  0  0  0  0  0  0
   -0.1293   -0.0261   -2.7941 H   0  0  0  0  0  0  0  0  0  0  0  0
   -0.1575   -1.1956   -1.0354 H   0  0  0  0  0  0  0  0  0  0  0  0
   -2.4229    0.6436   -1.4456 H   0  0  0  0  0  0  0  0  0  0  0  0
   -2.4146   -1.0887   -0.9973 H   0  0  0  0  0  0  0  0  0  0  0  0
   -2.4513    1.2730    0.8891 H   0  0  0  0  0  0  0  0  0  0  0  0
   -3.1148   -0.4370    1.0622 H   0  0  0  0  0  0  0  0  0  0  0  0
   -0.8733    0.2562    2.3834 H   0  0  0  0  0  0  0  0  0  0  0  0
   -0.8079   -1.2461    1.3176 H   0  0  0  0  0  0  0  0  0  0  0  0
   -0.1503    1.5724    0.3062 H   0  0  0  0  0  0  0  0  0  0  0  0
    1.6600    0.4477    1.8296 H   0  0  0  0  0  0  0  0  0  0  0  0
    3.4065    1.0468    0.1604 H   0  0  0  0  0  0  0  0  0  0  0  0
    2.1349    0.9463   -1.2031 H   0  0  0  0  0  0  0  0  0  0  0  0
    1.8220   -1.4949   -0.6990 H   0  0  0  0  0  0  0  0  0  0  0  0
    3.0465   -1.3419    0.7601 H   0  0  0  0  0  0  0  0  0  0  0  0
  1  2  1  0
  2  3  1  0
  3  4  1  0
  4  5  1  0
  5  6  1  0
  6  7  1  0
  7  8  1  0
  8  9  1  0
  6  2  1  0
  9  7  1  0
  1 10  1  0
  2 11  1  0
  3 12  1  0
  3 13  1  0
  4 14  1  0
  4 15  1  0
  5 16  1  0
  5 17  1  0
  6 18  1  0
  7 19  1  0
  8 20  1  0
  8 21  1  0
  9 22  1  0
  9 23  1  0
M  END
