
     RDKit          3D

 18 19  0  0  0  0  0  0  0  0999 V2000
    2.9816    0.3479    0.7462 O   0  0  0  0  0  0  0  0  0  0  0  0
    1.8236    0.5293    0.0145 C   0  0  0  0  0  0  0  0  0  0  0  0
    1.3912   -0.5446   -0.9729 C   0  0  0  0  0  0  0  0  0  0  0  0
    0.6648   -0.4294    0.2835 C   0  0  0  0  0  0  0  0  0  0  0  0
   -0.6978    0.1749    0.4110 C   0  0  0  0  0  0  0  0  0  0  0  0
   -1.7919   -0.8731    0.6807 C   0  0  0  0  0  0  0  0  0  0  0  0
   -1.7667    0.0070   -0.5588 C   0  0  0  0  0  0  0  0  0  0  0  0
   -2.7939    0.9674   -0.5431 O   0  0  0  0  0  0  0  0  0  0  0  0
    3.4576    1.1947    0.8636 H   0  0  0  0  0  0  0  0  0  0  0  0
    1.5593    1.5511   -0.3176 H   0  0  0  0  0  0  0  0  0  0  0  0
    2.1491   -1.3581   -1.0652 H   0  0  0  0  0  0  0  0  0  0  0  0
    0.9916   -0.2348   -1.9567 H   0  0  0  0  0  0  0  0  0  0  0  0
    0.8810   -1.1952    1.0762 H   0  0  0  0  0  0  0  0  0  0  0  0
   -0.7194    1.0874    1.0681 H   0  0  0  0  0  0  0  0  0  0  0  0
   -2.4600   -0.6324    1.5108 H   0  0  0  0  0  0  0  0  0  0  0  0
   -1.5614   -1.9264    0.4632 H   0  0  0  0  0  0  0  0  0  0  0  0
   -1.6546   -0.4627   -1.5521 H   0  0  0  0  0  0  0  0  0  0  0  0
   -2.4539    1.7971   -0.1513 H   0  0  0  0  0  0  0  0  0  0  0  0
  1  2  1  0
  2  3  1  0
  3  4  1  0
  4  5  1  0
  5  6  1  0
  6  7  1  0
  7  8  1  0
  4  2  1  0
  7  5  1  0
  1  9  1  0
  2 10  1  0
  3 11  1  0
  3 12  1  0
  4 13  1  0
  5 14  1  0
  6 15  1  0
  6 16  1  0
  7 17  1  0
  8 18  1  0
M  END
