
     RDKit          3D

 19 19  0  0  0  0  0  0  0  0999 V2000
    2.0492    0.0231    1.2029 O   0  0  0  0  0  0  0  0  0  0  0  0
    1.7588    0.1932   -0.1675 C   0  0  0  0  0  0  0  0  0  0  0  0
    1.0210   -0.9903   -0.6764 C   0  0  0  0  0  0  0  0  0  0  0  0
   -0.1673   -1.4593   -0.3378 C   0  0  0  0  0  0  0  0  0  0  0  0
   -1.0546   -0.8335    0.7018 C   0  0  0  0  0  0  0  0  0  0  0  0
   -1.4764    0.4900    0.1946 C   0  0  0  0  0  0  0  0  0  0  0  0
   -2.3332    0.3605   -0.9161 O   0  0  0  0  0  0  0  0  0  0  0  0
   -0.4059    1.4351   -0.1255 C   0  0  0  0  0  0  0  0  0  0  0  0
    0.8987    1.3749   -0.2829 C   0  0  0  0  0  0  0  0  0  0  0  0
    2.9796   -0.2861    1.3381 H   0  0  0  0  0  0  0  0  0  0  0  0
    2.7199    0.2845   -0.7112 H   0  0  0  0  0  0  0  0  0  0  0  0
    1.5104   -1.5771   -1.4446 H   0  0  0  0  0  0  0  0  0  0  0  0
   -0.5743   -2.3338   -0.7971 H   0  0  0  0  0  0  0  0  0  0  0  0
   -1.9232   -1.4425    0.9241 H   0  0  0  0  0  0  0  0  0  0  0  0
   -0.4452   -0.6882    1.6205 H   0  0  0  0  0  0  0  0  0  0  0  0
   -2.1221    0.9696    0.9884 H   0  0  0  0  0  0  0  0  0  0  0  0
   -3.0792   -0.2689   -0.7113 H   0  0  0  0  0  0  0  0  0  0  0  0
   -0.7866    2.4628   -0.2732 H   0  0  0  0  0  0  0  0  0  0  0  0
    1.4305    2.2861   -0.5267 H   0  0  0  0  0  0  0  0  0  0  0  0
  1  2  1  0
  2  3  1  0
  3  4  2  0
  4  5  1  0
  5  6  1  0
  6  7  1  0
  6  8  1  0
  8  9  2  0
  9  2  1  0
  1 10  1  0
  2 11  1  0
  3 12  1  0
  4 13  1  0
  5 14  1  0
  5 15  1  0
  6 16  1  0
  7 17  1  0
  8 18  1  0
  9 19  1  0
M  END
