
     RDKit          3D

 21 22  0  0  0  0  0  0  0  0999 V2000
    2.6020   -0.7145    0.5189 O   0  0  0  0  0  0  0  0  0  0  0  0
    1.2099   -0.6010    0.4866 C   0  0  0  0  0  0  0  0  0  0  0  0
    0.6654   -0.3482   -0.8889 C   0  0  0  0  0  0  0  0  0  0  0  0
   -0.7700   -0.7016   -1.0576 C   0  0  0  0  0  0  0  0  0  0  0  0
   -1.5585   -0.6643    0.2170 C   0  0  0  0  0  0  0  0  0  0  0  0
   -1.4931    0.6644    0.9150 C   0  0  0  0  0  0  0  0  0  0  0  0
   -0.3283    0.9143    1.5703 O   0  0  0  0  0  0  0  0  0  0  0  0
    0.8202    0.8132    0.8615 C   0  0  0  0  0  0  0  0  0  0  0  0
    0.7440    1.1465   -0.5829 C   0  0  0  0  0  0  0  0  0  0  0  0
    2.9765   -1.1978   -0.2392 H   0  0  0  0  0  0  0  0  0  0  0  0
    0.7414   -1.3907    1.0770 H   0  0  0  0  0  0  0  0  0  0  0  0
    1.3002   -0.6747   -1.7288 H   0  0  0  0  0  0  0  0  0  0  0  0
   -0.9379   -1.6936   -1.5231 H   0  0  0  0  0  0  0  0  0  0  0  0
   -1.2319    0.0592   -1.7433 H   0  0  0  0  0  0  0  0  0  0  0  0
   -2.6347   -0.8206   -0.0668 H   0  0  0  0  0  0  0  0  0  0  0  0
   -1.2816   -1.5194    0.8482 H   0  0  0  0  0  0  0  0  0  0  0  0
   -1.7981    1.4371    0.1779 H   0  0  0  0  0  0  0  0  0  0  0  0
   -2.3171    0.6535    1.6869 H   0  0  0  0  0  0  0  0  0  0  0  0
    1.6461    1.3910    1.3746 H   0  0  0  0  0  0  0  0  0  0  0  0
   -0.0993    1.7424   -0.9380 H   0  0  0  0  0  0  0  0  0  0  0  0
    1.7448    1.5050   -0.9652 H   0  0  0  0  0  0  0  0  0  0  0  0
  1  2  1  0
  2  3  1  0
  3  4  1  0
  4  5  1  0
  5  6  1  0
  6  7  1  0
  7  8  1  0
  8  9  1  0
  8  2  1  0
  9  3  1  0
  1 10  1  0
  2 11  1  0
  3 12  1  0
  4 13  1  0
  4 14  1  0
  5 15  1  0
  5 16  1  0
  6 17  1  0
  6 18  1  0
  8 19  1  0
  9 20  1  0
  9 21  1  0
M  END
