
     RDKit          3D

 19 21  0  0  0  0  0  0  0  0999 V2000
   -2.0200   -1.1099   -1.1670 O   0  0  0  0  0  0  0  0  0  0  0  0
   -1.3503   -0.7500   -0.0269 C   0  0  0  0  0  0  0  0  0  0  0  0
   -1.4604    0.7581    0.2583 C   0  0  0  0  0  0  0  0  0  0  0  0
   -0.0124    1.1312    0.2293 C   0  0  0  0  0  0  0  0  0  0  0  0
    0.7815   -0.0045    0.8055 C   0  0  0  0  0  0  0  0  0  0  0  0
    1.8277    0.3267   -0.2237 C   0  0  0  0  0  0  0  0  0  0  0  0
    2.5833   -0.7272   -0.6900 O   0  0  0  0  0  0  0  0  0  0  0  0
    0.5356    0.4352   -0.9741 C   0  0  0  0  0  0  0  0  0  0  0  0
    0.1352   -0.8324   -0.2577 C   0  0  0  0  0  0  0  0  0  0  0  0
   -2.9599   -0.8520   -1.1998 H   0  0  0  0  0  0  0  0  0  0  0  0
   -1.6540   -1.3406    0.8607 H   0  0  0  0  0  0  0  0  0  0  0  0
   -1.9361    1.2210   -0.6455 H   0  0  0  0  0  0  0  0  0  0  0  0
   -1.9801    0.9660    1.1883 H   0  0  0  0  0  0  0  0  0  0  0  0
    0.2826    2.1380    0.4423 H   0  0  0  0  0  0  0  0  0  0  0  0
    0.9241   -0.2272    1.7688 H   0  0  0  0  0  0  0  0  0  0  0  0
    2.3456    1.2502    0.0341 H   0  0  0  0  0  0  0  0  0  0  0  0
    2.9919   -1.2735    0.0055 H   0  0  0  0  0  0  0  0  0  0  0  0
    0.3943    0.6490   -1.9397 H   0  0  0  0  0  0  0  0  0  0  0  0
    0.5714   -1.7579   -0.5600 H   0  0  0  0  0  0  0  0  0  0  0  0
  1  2  1  0
  2  3  1  0
  3  4  1  0
  4  5  1  0
  5  6  1  0
  6  7  1  0
  6  8  1  0
  8  9  1  0
  9  2  1  0
  8  4  1  0
  9  5  1  0
  1 10  1  0
  2 11  1  0
  3 12  1  0
  3 13  1  0
  4 14  1  0
  5 15  1  0
  6 16  1  0
  7 17  1  0
  8 18  1  0
  9 19  1  0
M  END
