
     RDKit          3D

 21 22  0  0  0  0  0  0  0  0999 V2000
    0.2708    2.1435    0.3184 O   0  0  0  0  0  0  0  0  0  0  0  0
    0.6270    1.0635   -0.5240 C   0  0  0  0  0  0  0  0  0  0  0  0
    1.7561    0.3533    0.0968 C   0  0  0  0  0  0  0  0  0  0  0  0
    1.6285   -1.1121    0.1662 C   0  0  0  0  0  0  0  0  0  0  0  0
    0.5226   -1.7846   -0.0416 C   0  0  0  0  0  0  0  0  0  0  0  0
   -0.7114   -1.0734   -0.3719 C   0  0  0  0  0  0  0  0  0  0  0  0
   -1.5179   -0.5543    0.8090 C   0  0  0  0  0  0  0  0  0  0  0  0
   -1.7926    0.6868   -0.0149 C   0  0  0  0  0  0  0  0  0  0  0  0
   -0.5773    0.2964   -0.8661 C   0  0  0  0  0  0  0  0  0  0  0  0
    1.0892    2.4046    0.8477 H   0  0  0  0  0  0  0  0  0  0  0  0
    1.0057    1.5694   -1.4622 H   0  0  0  0  0  0  0  0  0  0  0  0
    2.7364    0.5624   -0.4275 H   0  0  0  0  0  0  0  0  0  0  0  0
    1.9505    0.7044    1.1539 H   0  0  0  0  0  0  0  0  0  0  0  0
    2.5297   -1.6798    0.4108 H   0  0  0  0  0  0  0  0  0  0  0  0
    0.5334   -2.8663    0.0336 H   0  0  0  0  0  0  0  0  0  0  0  0
   -1.3895   -1.7059   -0.9996 H   0  0  0  0  0  0  0  0  0  0  0  0
   -2.4405   -1.1522    1.0224 H   0  0  0  0  0  0  0  0  0  0  0  0
   -0.9163   -0.4058    1.7111 H   0  0  0  0  0  0  0  0  0  0  0  0
   -1.6395    1.5826    0.6050 H   0  0  0  0  0  0  0  0  0  0  0  0
   -2.7597    0.5825   -0.5230 H   0  0  0  0  0  0  0  0  0  0  0  0
   -0.9053    0.3851   -1.9440 H   0  0  0  0  0  0  0  0  0  0  0  0
  1  2  1  0
  2  3  1  0
  3  4  1  0
  4  5  2  0
  5  6  1  0
  6  7  1  0
  7  8  1  0
  8  9  1  0
  9  2  1  0
  9  6  1  0
  1 10  1  0
  2 11  1  0
  3 12  1  0
  3 13  1  0
  4 14  1  0
  5 15  1  0
  6 16  1  0
  7 17  1  0
  7 18  1  0
  8 19  1  0
  8 20  1  0
  9 21  1  0
M  END
