
     RDKit          3D

 17 18  0  0  0  0  0  0  0  0999 V2000
    2.3747   -0.0896    0.2001 O   0  0  0  0  0  0  0  0  0  0  0  0
    1.1432    0.0220   -0.4760 C   0  0  0  0  0  0  0  0  0  0  0  0
    0.5476    1.3314   -0.1266 C   0  0  0  0  0  0  0  0  0  0  0  0
   -0.7487    1.5294    0.0664 C   0  0  0  0  0  0  0  0  0  0  0  0
   -1.7324    0.4131   -0.0581 C   0  0  0  0  0  0  0  0  0  0  0  0
   -1.8735   -0.4833    0.9742 O   0  0  0  0  0  0  0  0  0  0  0  0
   -1.1818   -0.8861   -0.1846 C   0  0  0  0  0  0  0  0  0  0  0  0
    0.2746   -1.0901    0.0115 C   0  0  0  0  0  0  0  0  0  0  0  0
    0.5766   -1.3314    1.3720 O   0  0  0  0  0  0  0  0  0  0  0  0
    3.1143    0.0177   -0.4305 H   0  0  0  0  0  0  0  0  0  0  0  0
    1.3359   -0.0632   -1.5804 H   0  0  0  0  0  0  0  0  0  0  0  0
    1.2241    2.1712   -0.0256 H   0  0  0  0  0  0  0  0  0  0  0  0
   -1.0752    2.5330    0.3191 H   0  0  0  0  0  0  0  0  0  0  0  0
   -2.6826    0.6546   -0.5944 H   0  0  0  0  0  0  0  0  0  0  0  0
   -1.6932   -1.6322   -0.8480 H   0  0  0  0  0  0  0  0  0  0  0  0
    0.6208   -2.0276   -0.5144 H   0  0  0  0  0  0  0  0  0  0  0  0
   -0.2244   -1.0688    1.8954 H   0  0  0  0  0  0  0  0  0  0  0  0
  1  2  1  0
  2  3  1  0
  3  4  2  0
  4  5  1  0
  5  6  1  0
  6  7  1  0
  7  8  1  0
  8  9  1  0
  8  2  1  0
  7  5  1  0
  1 10  1  0
  2 11  1  0
  3 12  1  0
  4 13  1  0
  5 14  1  0
  7 15  1  0
  8 16  1  0
  9 17  1  0
M  END
