
     RDKit          3D

 19 21  0  0  0  0  0  0  0  0999 V2000
    2.5565   -0.4897    0.6391 O   0  0  0  0  0  0  0  0  0  0  0  0
    1.2409   -0.0491    0.5960 C   0  0  0  0  0  0  0  0  0  0  0  0
    1.1184    1.2266   -0.2415 C   0  0  0  0  0  0  0  0  0  0  0  0
   -0.2072    0.6640   -0.7426 C   0  0  0  0  0  0  0  0  0  0  0  0
   -1.2862    0.8445    0.2788 C   0  0  0  0  0  0  0  0  0  0  0  0
   -1.8843   -0.5250    0.3955 C   0  0  0  0  0  0  0  0  0  0  0  0
   -1.3011   -1.3567    1.3195 O   0  0  0  0  0  0  0  0  0  0  0  0
   -0.7755   -1.5177    0.0654 C   0  0  0  0  0  0  0  0  0  0  0  0
    0.3691   -0.7185   -0.4362 C   0  0  0  0  0  0  0  0  0  0  0  0
    2.8307   -0.6687   -0.3016 H   0  0  0  0  0  0  0  0  0  0  0  0
    0.8123    0.0202    1.6030 H   0  0  0  0  0  0  0  0  0  0  0  0
    1.0009    2.1471    0.3269 H   0  0  0  0  0  0  0  0  0  0  0  0
    1.8717    1.1977   -1.0409 H   0  0  0  0  0  0  0  0  0  0  0  0
   -0.4446    0.8568   -1.7823 H   0  0  0  0  0  0  0  0  0  0  0  0
   -0.8733    1.1499    1.2707 H   0  0  0  0  0  0  0  0  0  0  0  0
   -2.0679    1.5664   -0.0508 H   0  0  0  0  0  0  0  0  0  0  0  0
   -2.8335   -0.7705   -0.0960 H   0  0  0  0  0  0  0  0  0  0  0  0
   -1.0224   -2.4221   -0.5177 H   0  0  0  0  0  0  0  0  0  0  0  0
    0.8955   -1.1549   -1.2852 H   0  0  0  0  0  0  0  0  0  0  0  0
  1  2  1  0
  2  3  1  0
  3  4  1  0
  4  5  1  0
  5  6  1  0
  6  7  1  0
  7  8  1  0
  8  9  1  0
  9  2  1  0
  9  4  1  0
  8  6  1  0
  1 10  1  0
  2 11  1  0
  3 12  1  0
  3 13  1  0
  4 14  1  0
  5 15  1  0
  5 16  1  0
  6 17  1  0
  8 18  1  0
  9 19  1  0
M  END
