
     RDKit          3D

 19 20  0  0  0  0  0  0  0  0999 V2000
    2.9015   -0.2535   -0.4804 O   0  0  0  0  0  0  0  0  0  0  0  0
    1.5170   -0.2876   -0.4278 C   0  0  0  0  0  0  0  0  0  0  0  0
    0.9152    0.9781   -0.9562 C   0  0  0  0  0  0  0  0  0  0  0  0
   -0.4057    1.0700   -0.8515 C   0  0  0  0  0  0  0  0  0  0  0  0
   -1.1125   -0.0804   -0.2307 C   0  0  0  0  0  0  0  0  0  0  0  0
   -0.4918   -0.5305    1.0486 C   0  0  0  0  0  0  0  0  0  0  0  0
    1.0177   -0.5424    0.9851 C   0  0  0  0  0  0  0  0  0  0  0  0
   -2.5921   -0.0339   -0.3211 C   0  0  0  0  0  0  0  0  0  0  0  0
   -1.8296   -0.9498   -1.0292 O   0  0  0  0  0  0  0  0  0  0  0  0
    3.2667    0.3847    0.1775 H   0  0  0  0  0  0  0  0  0  0  0  0
    1.1767   -1.1288   -1.0481 H   0  0  0  0  0  0  0  0  0  0  0  0
    1.5278    1.7644   -1.3951 H   0  0  0  0  0  0  0  0  0  0  0  0
   -0.9252    1.9522   -1.2085 H   0  0  0  0  0  0  0  0  0  0  0  0
   -0.8058   -1.5982    1.2088 H   0  0  0  0  0  0  0  0  0  0  0  0
   -0.7873    0.0864    1.9188 H   0  0  0  0  0  0  0  0  0  0  0  0
    1.4440   -1.4765    1.4010 H   0  0  0  0  0  0  0  0  0  0  0  0
    1.4299    0.2823    1.6041 H   0  0  0  0  0  0  0  0  0  0  0  0
   -3.1377   -0.3461    0.5805 H   0  0  0  0  0  0  0  0  0  0  0  0
   -3.1087    0.7095   -0.9758 H   0  0  0  0  0  0  0  0  0  0  0  0
  1  2  1  0
  2  3  1  0
  3  4  2  0
  4  5  1  0
  5  6  1  0
  6  7  1  0
  5  8  1  0
  8  9  1  0
  7  2  1  0
  9  5  1  0
  1 10  1  0
  2 11  1  0
  3 12  1  0
  4 13  1  0
  6 14  1  0
  6 15  1  0
  7 16  1  0
  7 17  1  0
  8 18  1  0
  8 19  1  0
M  END
