
     RDKit          3D

 19 20  0  0  0  0  0  0  0  0999 V2000
    2.1504   -0.6970   -0.8250 O   0  0  0  0  0  0  0  0  0  0  0  0
    0.9129   -0.9137   -0.2727 C   0  0  0  0  0  0  0  0  0  0  0  0
   -0.1514   -0.1720   -1.0820 C   0  0  0  0  0  0  0  0  0  0  0  0
    0.2671    1.2507   -0.7935 C   0  0  0  0  0  0  0  0  0  0  0  0
    0.6711    1.2773    0.4595 C   0  0  0  0  0  0  0  0  0  0  0  0
    0.8449   -0.0879    1.0194 C   0  0  0  0  0  0  0  0  0  0  0  0
   -0.3228   -0.4707    1.6647 O   0  0  0  0  0  0  0  0  0  0  0  0
   -1.3909    0.0905    1.0065 C   0  0  0  0  0  0  0  0  0  0  0  0
   -1.4888   -0.3695   -0.4486 C   0  0  0  0  0  0  0  0  0  0  0  0
    2.8016   -1.4298   -0.6853 H   0  0  0  0  0  0  0  0  0  0  0  0
    0.6612   -1.9613   -0.1038 H   0  0  0  0  0  0  0  0  0  0  0  0
   -0.1067   -0.3948   -2.1463 H   0  0  0  0  0  0  0  0  0  0  0  0
    0.2073    2.0304   -1.5457 H   0  0  0  0  0  0  0  0  0  0  0  0
    0.8560    2.1841    1.0193 H   0  0  0  0  0  0  0  0  0  0  0  0
    1.7525   -0.2255    1.5975 H   0  0  0  0  0  0  0  0  0  0  0  0
   -1.2758    1.1937    1.0289 H   0  0  0  0  0  0  0  0  0  0  0  0
   -2.3616   -0.1185    1.5179 H   0  0  0  0  0  0  0  0  0  0  0  0
   -1.8001   -1.4470   -0.4527 H   0  0  0  0  0  0  0  0  0  0  0  0
   -2.2270    0.2610   -0.9582 H   0  0  0  0  0  0  0  0  0  0  0  0
  1  2  1  0
  2  3  1  0
  3  4  1  0
  4  5  2  0
  5  6  1  0
  6  7  1  0
  7  8  1  0
  8  9  1  0
  6  2  1  0
  9  3  1  0
  1 10  1  0
  2 11  1  0
  3 12  1  0
  4 13  1  0
  5 14  1  0
  6 15  1  0
  8 16  1  0
  8 17  1  0
  9 18  1  0
  9 19  1  0
M  END
