
     RDKit          3D

 17 19  0  0  0  0  0  0  0  0999 V2000
    2.3351   -1.0880    0.2286 O   0  0  0  0  0  0  0  0  0  0  0  0
    0.9988   -0.7192    0.5522 C   0  0  0  0  0  0  0  0  0  0  0  0
    0.1644   -0.6309   -0.6591 C   0  0  0  0  0  0  0  0  0  0  0  0
   -1.3615   -0.6618   -0.5642 C   0  0  0  0  0  0  0  0  0  0  0  0
   -1.5503    0.0486    0.7208 C   0  0  0  0  0  0  0  0  0  0  0  0
   -1.7472    1.2999    1.0563 O   0  0  0  0  0  0  0  0  0  0  0  0
   -0.7127    1.2769    0.2590 C   0  0  0  0  0  0  0  0  0  0  0  0
    0.5816    0.6124    0.2100 C   0  0  0  0  0  0  0  0  0  0  0  0
    1.5792    1.4331   -0.3917 O   0  0  0  0  0  0  0  0  0  0  0  0
    2.9313   -0.9745    0.9898 H   0  0  0  0  0  0  0  0  0  0  0  0
    0.7074   -1.3018    1.4528 H   0  0  0  0  0  0  0  0  0  0  0  0
    0.5740   -0.6421   -1.6637 H   0  0  0  0  0  0  0  0  0  0  0  0
   -1.8236   -0.1471   -1.4240 H   0  0  0  0  0  0  0  0  0  0  0  0
   -1.7203   -1.6976   -0.5326 H   0  0  0  0  0  0  0  0  0  0  0  0
   -1.1475   -0.5423    1.5782 H   0  0  0  0  0  0  0  0  0  0  0  0
   -0.9953    1.6906   -0.7646 H   0  0  0  0  0  0  0  0  0  0  0  0
    1.1866    2.0438   -1.0478 H   0  0  0  0  0  0  0  0  0  0  0  0
  1  2  1  0
  2  3  1  0
  3  4  1  0
  4  5  1  0
  5  6  1  0
  6  7  1  0
  7  8  1  0
  8  9  1  0
  8  2  1  0
  8  3  1  0
  7  5  1  0
  1 10  1  0
  2 11  1  0
  3 12  1  0
  4 13  1  0
  4 14  1  0
  5 15  1  0
  7 16  1  0
  9 17  1  0
M  END
