
     RDKit          3D

 17 20  0  0  0  0  0  0  0  0999 V2000
    2.1034    0.3409    0.6184 O   0  0  0  0  0  0  0  0  0  0  0  0
    1.2614   -0.3798   -0.1873 C   0  0  0  0  0  0  0  0  0  0  0  0
    0.1302   -1.0497    0.6169 C   0  0  0  0  0  0  0  0  0  0  0  0
   -0.5949   -1.5571   -0.4819 O   0  0  0  0  0  0  0  0  0  0  0  0
   -0.8778   -0.3345   -1.1385 C   0  0  0  0  0  0  0  0  0  0  0  0
    0.3126    0.5507   -0.9582 C   0  0  0  0  0  0  0  0  0  0  0  0
   -0.3822    1.2108    0.1859 C   0  0  0  0  0  0  0  0  0  0  0  0
   -0.6608    0.1219    1.1192 C   0  0  0  0  0  0  0  0  0  0  0  0
   -1.5576    0.3960   -0.0271 C   0  0  0  0  0  0  0  0  0  0  0  0
    2.6670   -0.2686    1.1209 H   0  0  0  0  0  0  0  0  0  0  0  0
    1.7508   -1.0925   -0.8607 H   0  0  0  0  0  0  0  0  0  0  0  0
    0.4570   -1.7671    1.3226 H   0  0  0  0  0  0  0  0  0  0  0  0
   -1.3495   -0.4027   -2.0975 H   0  0  0  0  0  0  0  0  0  0  0  0
    0.7108    1.1098   -1.7614 H   0  0  0  0  0  0  0  0  0  0  0  0
   -0.3714    2.2601    0.3846 H   0  0  0  0  0  0  0  0  0  0  0  0
   -1.0128    0.2096    2.1305 H   0  0  0  0  0  0  0  0  0  0  0  0
   -2.5862    0.6521    0.0137 H   0  0  0  0  0  0  0  0  0  0  0  0
  1  2  1  0
  2  3  1  0
  3  4  1  0
  4  5  1  0
  5  6  1  0
  6  7  1  0
  7  8  1  0
  8  9  1  0
  6  2  1  0
  9  7  1  0
  8  3  1  0
  9  5  1  0
  1 10  1  0
  2 11  1  0
  3 12  1  0
  5 13  1  0
  6 14  1  0
  7 15  1  0
  8 16  1  0
  9 17  1  0
M  END
