
     RDKit          3D

 21 22  0  0  0  0  0  0  0  0999 V2000
    2.6292   -0.4321    0.8263 O   0  0  0  0  0  0  0  0  0  0  0  0
    1.6001   -0.5484   -0.1187 C   0  0  0  0  0  0  0  0  0  0  0  0
    1.3003    0.8208   -0.6614 C   0  0  0  0  0  0  0  0  0  0  0  0
   -0.0039    1.2523   -0.0049 C   0  0  0  0  0  0  0  0  0  0  0  0
   -0.7032   -0.0607    0.1653 C   0  0  0  0  0  0  0  0  0  0  0  0
   -1.9607    0.0026    0.9459 C   0  0  0  0  0  0  0  0  0  0  0  0
   -2.6482    0.2820   -0.2494 O   0  0  0  0  0  0  0  0  0  0  0  0
   -1.6470   -0.4208   -0.9366 C   0  0  0  0  0  0  0  0  0  0  0  0
    0.3300   -1.0468    0.5451 C   0  0  0  0  0  0  0  0  0  0  0  0
    3.3754    0.0300    0.4110 H   0  0  0  0  0  0  0  0  0  0  0  0
    1.8923   -1.2128   -0.9676 H   0  0  0  0  0  0  0  0  0  0  0  0
    2.0819    1.5694   -0.4276 H   0  0  0  0  0  0  0  0  0  0  0  0
    1.0980    0.8154   -1.7630 H   0  0  0  0  0  0  0  0  0  0  0  0
   -0.6225    1.8777   -0.6787 H   0  0  0  0  0  0  0  0  0  0  0  0
    0.1538    1.7507    0.9621 H   0  0  0  0  0  0  0  0  0  0  0  0
   -1.9590    0.8766    1.6366 H   0  0  0  0  0  0  0  0  0  0  0  0
   -2.3428   -0.9209    1.3936 H   0  0  0  0  0  0  0  0  0  0  0  0
   -1.3223    0.0437   -1.8881 H   0  0  0  0  0  0  0  0  0  0  0  0
   -1.9072   -1.4786   -1.0383 H   0  0  0  0  0  0  0  0  0  0  0  0
    0.1465   -2.0838    0.2029 H   0  0  0  0  0  0  0  0  0  0  0  0
    0.5094   -1.1163    1.6455 H   0  0  0  0  0  0  0  0  0  0  0  0
  1  2  1  0
  2  3  1  0
  3  4  1  0
  4  5  1  0
  5  6  1  0
  6  7  1  0
  7  8  1  0
  5  9  1  0
  9  2  1  0
  8  5  1  0
  1 10  1  0
  2 11  1  0
  3 12  1  0
  3 13  1  0
  4 14  1  0
  4 15  1  0
  6 16  1  0
  6 17  1  0
  8 18  1  0
  8 19  1  0
  9 20  1  0
  9 21  1  0
M  END
