
     RDKit          3D

 19 20  0  0  0  0  0  0  0  0999 V2000
    2.2433   -0.6648    0.9590 O   0  0  0  0  0  0  0  0  0  0  0  0
    1.9449   -0.2544   -0.3391 C   0  0  0  0  0  0  0  0  0  0  0  0
    0.8412   -1.0931   -0.8281 C   0  0  0  0  0  0  0  0  0  0  0  0
   -0.3238   -0.5508   -0.5382 C   0  0  0  0  0  0  0  0  0  0  0  0
   -1.8283   -0.6053   -0.5899 C   0  0  0  0  0  0  0  0  0  0  0  0
   -2.1722    0.0305    0.7337 C   0  0  0  0  0  0  0  0  0  0  0  0
   -1.1199    1.0504    0.8897 C   0  0  0  0  0  0  0  0  0  0  0  0
   -0.0841    0.7162    0.1725 C   0  0  0  0  0  0  0  0  0  0  0  0
    1.3128    1.1117   -0.2389 C   0  0  0  0  0  0  0  0  0  0  0  0
    3.2278   -0.7745    1.0533 H   0  0  0  0  0  0  0  0  0  0  0  0
    2.8320   -0.2655   -0.9978 H   0  0  0  0  0  0  0  0  0  0  0  0
    0.9363   -2.0384   -1.3604 H   0  0  0  0  0  0  0  0  0  0  0  0
   -2.1790   -1.6553   -0.6462 H   0  0  0  0  0  0  0  0  0  0  0  0
   -2.1605    0.0144   -1.4314 H   0  0  0  0  0  0  0  0  0  0  0  0
   -3.1940    0.4635    0.7438 H   0  0  0  0  0  0  0  0  0  0  0  0
   -2.0685   -0.7818    1.4993 H   0  0  0  0  0  0  0  0  0  0  0  0
   -1.2494    1.9371    1.5292 H   0  0  0  0  0  0  0  0  0  0  0  0
    1.7374    1.7043    0.5947 H   0  0  0  0  0  0  0  0  0  0  0  0
    1.3038    1.6558   -1.2051 H   0  0  0  0  0  0  0  0  0  0  0  0
  1  2  1  0
  2  3  1  0
  3  4  2  0
  4  5  1  0
  5  6  1  0
  6  7  1  0
  7  8  2  0
  8  9  1  0
  9  2  1  0
  8  4  1  0
  1 10  1  0
  2 11  1  0
  3 12  1  0
  5 13  1  0
  5 14  1  0
  6 15  1  0
  6 16  1  0
  7 17  1  0
  9 18  1  0
  9 19  1  0
M  END
