
     RDKit          3D

 21 22  0  0  0  0  0  0  0  0999 V2000
    1.1359   -1.8747   -0.4608 O   0  0  0  0  0  0  0  0  0  0  0  0
    1.0970   -0.5530   -0.9036 C   0  0  0  0  0  0  0  0  0  0  0  0
    2.2611    0.2477   -0.4235 C   0  0  0  0  0  0  0  0  0  0  0  0
    1.8482    0.6630    0.9747 C   0  0  0  0  0  0  0  0  0  0  0  0
    0.3497    0.7626    0.8415 C   0  0  0  0  0  0  0  0  0  0  0  0
   -0.0710    0.0849   -0.2058 C   0  0  0  0  0  0  0  0  0  0  0  0
   -1.4648   -0.0719   -0.6859 C   0  0  0  0  0  0  0  0  0  0  0  0
   -2.4814   -0.8247    0.0441 C   0  0  0  0  0  0  0  0  0  0  0  0
   -2.5099    0.6508    0.1596 C   0  0  0  0  0  0  0  0  0  0  0  0
    1.7382   -1.8741    0.3362 H   0  0  0  0  0  0  0  0  0  0  0  0
    0.9791   -0.5349   -1.9989 H   0  0  0  0  0  0  0  0  0  0  0  0
    3.2110   -0.3413   -0.3766 H   0  0  0  0  0  0  0  0  0  0  0  0
    2.4208    1.1390   -1.0350 H   0  0  0  0  0  0  0  0  0  0  0  0
    2.2066    1.6821    1.1999 H   0  0  0  0  0  0  0  0  0  0  0  0
    2.1239   -0.0865    1.7273 H   0  0  0  0  0  0  0  0  0  0  0  0
   -0.2890    1.3129    1.5110 H   0  0  0  0  0  0  0  0  0  0  0  0
   -1.5953   -0.0272   -1.7994 H   0  0  0  0  0  0  0  0  0  0  0  0
   -2.1790   -1.4041    0.9189 H   0  0  0  0  0  0  0  0  0  0  0  0
   -3.3157   -1.2866   -0.5235 H   0  0  0  0  0  0  0  0  0  0  0  0
   -3.2085    1.2674   -0.4315 H   0  0  0  0  0  0  0  0  0  0  0  0
   -2.2570    1.0686    1.1313 H   0  0  0  0  0  0  0  0  0  0  0  0
  1  2  1  0
  2  3  1  0
  3  4  1  0
  4  5  1  0
  5  6  2  0
  6  7  1  0
  7  8  1  0
  8  9  1  0
  6  2  1  0
  9  7  1  0
  1 10  1  0
  2 11  1  0
  3 12  1  0
  3 13  1  0
  4 14  1  0
  4 15  1  0
  5 16  1  0
  7 17  1  0
  8 18  1  0
  8 19  1  0
  9 20  1  0
  9 21  1  0
M  END
