
     RDKit          3D

 19 21  0  0  0  0  0  0  0  0999 V2000
   -2.3486    0.2236   -0.6898 O   0  0  0  0  0  0  0  0  0  0  0  0
   -1.0659   -0.1982   -0.9025 C   0  0  0  0  0  0  0  0  0  0  0  0
   -0.5228   -0.9710    0.3118 C   0  0  0  0  0  0  0  0  0  0  0  0
   -0.6452    0.1245    1.3371 C   0  0  0  0  0  0  0  0  0  0  0  0
   -0.4487    1.3097    0.7172 C   0  0  0  0  0  0  0  0  0  0  0  0
   -0.1169    0.9962   -0.7004 C   0  0  0  0  0  0  0  0  0  0  0  0
    1.2133    0.3024   -0.7092 C   0  0  0  0  0  0  0  0  0  0  0  0
    1.8961   -0.0889    0.5293 C   0  0  0  0  0  0  0  0  0  0  0  0
    0.9122   -1.0877   -0.0578 C   0  0  0  0  0  0  0  0  0  0  0  0
   -2.9684   -0.4872   -0.3620 H   0  0  0  0  0  0  0  0  0  0  0  0
   -0.8829   -0.7137   -1.8377 H   0  0  0  0  0  0  0  0  0  0  0  0
   -1.0603   -1.8607    0.5384 H   0  0  0  0  0  0  0  0  0  0  0  0
   -0.8494    0.0604    2.3881 H   0  0  0  0  0  0  0  0  0  0  0  0
   -0.5055    2.3005    1.1105 H   0  0  0  0  0  0  0  0  0  0  0  0
   -0.2560    1.7846   -1.4013 H   0  0  0  0  0  0  0  0  0  0  0  0
    1.7963    0.2904   -1.6362 H   0  0  0  0  0  0  0  0  0  0  0  0
    2.9707   -0.3163    0.4714 H   0  0  0  0  0  0  0  0  0  0  0  0
    1.5813    0.2668    1.5351 H   0  0  0  0  0  0  0  0  0  0  0  0
    1.3006   -1.9353   -0.6421 H   0  0  0  0  0  0  0  0  0  0  0  0
  1  2  1  0
  2  3  1  0
  3  4  1  0
  4  5  2  0
  5  6  1  0
  6  7  1  0
  7  8  1  0
  8  9  1  0
  6  2  1  0
  9  7  1  0
  9  3  1  0
  1 10  1  0
  2 11  1  0
  3 12  1  0
  4 13  1  0
  5 14  1  0
  6 15  1  0
  7 16  1  0
  8 17  1  0
  8 18  1  0
  9 19  1  0
M  END
