
     RDKit          3D

 21 22  0  0  0  0  0  0  0  0999 V2000
   -2.5583    0.6721    0.4595 O   0  0  0  0  0  0  0  0  0  0  0  0
   -1.5302    0.8059   -0.4613 C   0  0  0  0  0  0  0  0  0  0  0  0
   -0.5296    1.8140   -0.0580 C   0  0  0  0  0  0  0  0  0  0  0  0
    0.7800    1.6904    0.1438 C   0  0  0  0  0  0  0  0  0  0  0  0
    1.5694    0.4638    0.0053 C   0  0  0  0  0  0  0  0  0  0  0  0
    1.0342   -0.6934    0.8007 C   0  0  0  0  0  0  0  0  0  0  0  0
    0.9442   -2.0219    0.0306 C   0  0  0  0  0  0  0  0  0  0  0  0
   -0.2722   -1.1988    0.3733 C   0  0  0  0  0  0  0  0  0  0  0  0
   -0.8865   -0.4982   -0.8060 C   0  0  0  0  0  0  0  0  0  0  0  0
   -2.1941    0.4190    1.3465 H   0  0  0  0  0  0  0  0  0  0  0  0
   -2.0061    1.1888   -1.4027 H   0  0  0  0  0  0  0  0  0  0  0  0
   -0.8954    2.8144    0.1037 H   0  0  0  0  0  0  0  0  0  0  0  0
    1.3425    2.5649    0.4395 H   0  0  0  0  0  0  0  0  0  0  0  0
    2.6005    0.6484    0.3655 H   0  0  0  0  0  0  0  0  0  0  0  0
    1.6868    0.1721   -1.0713 H   0  0  0  0  0  0  0  0  0  0  0  0
    1.2957   -0.7707    1.8572 H   0  0  0  0  0  0  0  0  0  0  0  0
    1.3432   -2.0214   -0.9965 H   0  0  0  0  0  0  0  0  0  0  0  0
    1.1555   -2.9452    0.5972 H   0  0  0  0  0  0  0  0  0  0  0  0
   -0.9877   -1.5725    1.1137 H   0  0  0  0  0  0  0  0  0  0  0  0
   -1.6945   -1.1795   -1.1898 H   0  0  0  0  0  0  0  0  0  0  0  0
   -0.1973   -0.3523   -1.6511 H   0  0  0  0  0  0  0  0  0  0  0  0
  1  2  1  0
  2  3  1  0
  3  4  2  0
  4  5  1  0
  5  6  1  0
  6  7  1  0
  7  8  1  0
  8  9  1  0
  9  2  1  0
  8  6  1  0
  1 10  1  0
  2 11  1  0
  3 12  1  0
  4 13  1  0
  5 14  1  0
  5 15  1  0
  6 16  1  0
  7 17  1  0
  7 18  1  0
  8 19  1  0
  9 20  1  0
  9 21  1  0
M  END
