
     RDKit          3D

 17 18  0  0  0  0  0  0  0  0999 V2000
    2.4334   -0.4945    0.7109 O   0  0  0  0  0  0  0  0  0  0  0  0
    1.5941    0.0951   -0.1975 C   0  0  0  0  0  0  0  0  0  0  0  0
    0.5616    0.9498    0.5478 C   0  0  0  0  0  0  0  0  0  0  0  0
   -0.4906    0.0597   -0.0132 C   0  0  0  0  0  0  0  0  0  0  0  0
   -1.6800   -0.3787    0.6823 C   0  0  0  0  0  0  0  0  0  0  0  0
   -1.7690    0.5230   -0.5247 C   0  0  0  0  0  0  0  0  0  0  0  0
    0.4726   -0.7948   -0.7303 C   0  0  0  0  0  0  0  0  0  0  0  0
    2.8913   -1.3042    0.4053 H   0  0  0  0  0  0  0  0  0  0  0  0
    2.0543    0.7087   -0.9947 H   0  0  0  0  0  0  0  0  0  0  0  0
    0.6238    0.9004    1.6380 H   0  0  0  0  0  0  0  0  0  0  0  0
    0.5164    1.9991    0.2172 H   0  0  0  0  0  0  0  0  0  0  0  0
   -2.0246   -1.4329    0.4733 H   0  0  0  0  0  0  0  0  0  0  0  0
   -1.8752    0.0415    1.6965 H   0  0  0  0  0  0  0  0  0  0  0  0
   -2.0562    1.5798   -0.2486 H   0  0  0  0  0  0  0  0  0  0  0  0
   -2.2157    0.1733   -1.4589 H   0  0  0  0  0  0  0  0  0  0  0  0
    0.5103   -1.8432   -0.3589 H   0  0  0  0  0  0  0  0  0  0  0  0
    0.4533   -0.7819   -1.8444 H   0  0  0  0  0  0  0  0  0  0  0  0
  1  2  1  0
  2  3  1  0
  3  4  1  0
  4  5  1  0
  5  6  1  0
  4  7  1  0
  7  2  1  0
  6  4  1  0
  1  8  1  0
  2  9  1  0
  3 10  1  0
  3 11  1  0
  5 12  1  0
  5 13  1  0
  6 14  1  0
  6 15  1  0
  7 16  1  0
  7 17  1  0
M  END
