
     RDKit          3D

 21 22  0  0  0  0  0  0  0  0999 V2000
    2.4409    0.3933    1.2053 O   0  0  0  0  0  0  0  0  0  0  0  0
    2.0087    0.9628    0.0146 C   0  0  0  0  0  0  0  0  0  0  0  0
    1.4553    0.1462   -1.0768 C   0  0  0  0  0  0  0  0  0  0  0  0
    1.4793   -1.2136   -0.9158 O   0  0  0  0  0  0  0  0  0  0  0  0
    0.5613    1.0463   -0.2043 C   0  0  0  0  0  0  0  0  0  0  0  0
   -0.4769    0.3248    0.5685 C   0  0  0  0  0  0  0  0  0  0  0  0
   -1.9161    0.6703    0.2150 C   0  0  0  0  0  0  0  0  0  0  0  0
   -2.2044   -0.8309    0.3653 C   0  0  0  0  0  0  0  0  0  0  0  0
   -0.7617   -1.0333   -0.0848 C   0  0  0  0  0  0  0  0  0  0  0  0
    1.9922   -0.4383    1.4224 H   0  0  0  0  0  0  0  0  0  0  0  0
    2.6116    1.8450   -0.3064 H   0  0  0  0  0  0  0  0  0  0  0  0
    1.5693    0.4782   -2.1305 H   0  0  0  0  0  0  0  0  0  0  0  0
    2.2840   -1.4976   -0.4539 H   0  0  0  0  0  0  0  0  0  0  0  0
    0.1634    1.9701   -0.7162 H   0  0  0  0  0  0  0  0  0  0  0  0
   -0.3412    0.1979    1.6437 H   0  0  0  0  0  0  0  0  0  0  0  0
   -2.4449    1.2211    1.0020 H   0  0  0  0  0  0  0  0  0  0  0  0
   -2.0866    1.0393   -0.7939 H   0  0  0  0  0  0  0  0  0  0  0  0
   -2.3478   -1.1725    1.3877 H   0  0  0  0  0  0  0  0  0  0  0  0
   -2.9378   -1.2143   -0.3448 H   0  0  0  0  0  0  0  0  0  0  0  0
   -0.2931   -1.8855    0.4051 H   0  0  0  0  0  0  0  0  0  0  0  0
   -0.7554   -1.0094   -1.2022 H   0  0  0  0  0  0  0  0  0  0  0  0
  1  2  1  0
  2  3  1  0
  3  4  1  0
  3  5  1  0
  5  6  1  0
  6  7  1  0
  7  8  1  0
  8  9  1  0
  5  2  1  0
  9  6  1  0
  1 10  1  0
  2 11  1  0
  3 12  1  0
  4 13  1  0
  5 14  1  0
  6 15  1  0
  7 16  1  0
  7 17  1  0
  8 18  1  0
  8 19  1  0
  9 20  1  0
  9 21  1  0
M  END
