
     RDKit          3D

 19 20  0  0  0  0  0  0  0  0999 V2000
   -2.7083   -0.0780   -1.1281 O   0  0  0  0  0  0  0  0  0  0  0  0
   -2.0686   -0.3841    0.0707 C   0  0  0  0  0  0  0  0  0  0  0  0
   -1.2151    0.7431    0.6052 C   0  0  0  0  0  0  0  0  0  0  0  0
   -0.6109   -0.5202    0.0199 C   0  0  0  0  0  0  0  0  0  0  0  0
    0.0812   -0.4073   -1.3084 C   0  0  0  0  0  0  0  0  0  0  0  0
    1.3283    0.0686   -1.2166 C   0  0  0  0  0  0  0  0  0  0  0  0
    1.7693    0.3858    0.1708 C   0  0  0  0  0  0  0  0  0  0  0  0
    1.3334   -0.6285    1.1898 C   0  0  0  0  0  0  0  0  0  0  0  0
    0.1298   -1.2550    0.9031 O   0  0  0  0  0  0  0  0  0  0  0  0
   -2.1757    0.5919   -1.6246 H   0  0  0  0  0  0  0  0  0  0  0  0
   -2.6929   -0.9651    0.7743 H   0  0  0  0  0  0  0  0  0  0  0  0
   -1.2336    0.8566    1.7129 H   0  0  0  0  0  0  0  0  0  0  0  0
   -1.0438    1.6396    0.0040 H   0  0  0  0  0  0  0  0  0  0  0  0
   -0.3651   -0.6773   -2.2505 H   0  0  0  0  0  0  0  0  0  0  0  0
    1.9521    0.2049   -2.0963 H   0  0  0  0  0  0  0  0  0  0  0  0
    1.2973    1.3672    0.4628 H   0  0  0  0  0  0  0  0  0  0  0  0
    2.8642    0.5706    0.2059 H   0  0  0  0  0  0  0  0  0  0  0  0
    1.1897   -0.1469    2.1985 H   0  0  0  0  0  0  0  0  0  0  0  0
    2.1688   -1.3658    1.3067 H   0  0  0  0  0  0  0  0  0  0  0  0
  1  2  1  0
  2  3  1  0
  3  4  1  0
  4  5  1  0
  5  6  2  0
  6  7  1  0
  7  8  1  0
  8  9  1  0
  4  2  1  0
  9  4  1  0
  1 10  1  0
  2 11  1  0
  3 12  1  0
  3 13  1  0
  5 14  1  0
  6 15  1  0
  7 16  1  0
  7 17  1  0
  8 18  1  0
  8 19  1  0
M  END
