
     RDKit          3D

 23 23  0  0  0  0  0  0  0  0999 V2000
    2.6769   -1.4542    0.0683 O   0  0  0  0  0  0  0  0  0  0  0  0
    1.5010   -0.7713   -0.0865 C   0  0  0  0  0  0  0  0  0  0  0  0
    1.4774    0.5435    0.6961 C   0  0  0  0  0  0  0  0  0  0  0  0
    0.7936    1.5581   -0.1284 C   0  0  0  0  0  0  0  0  0  0  0  0
   -0.4544    1.8549   -0.4305 C   0  0  0  0  0  0  0  0  0  0  0  0
   -1.7640    1.2918   -0.0714 C   0  0  0  0  0  0  0  0  0  0  0  0
   -1.7344   -0.1318    0.3698 C   0  0  0  0  0  0  0  0  0  0  0  0
   -0.9318   -1.0311   -0.5171 C   0  0  0  0  0  0  0  0  0  0  0  0
    0.2733   -1.5552    0.2785 C   0  0  0  0  0  0  0  0  0  0  0  0
    2.8458   -1.9824   -0.7574 H   0  0  0  0  0  0  0  0  0  0  0  0
    1.3916   -0.5258   -1.1836 H   0  0  0  0  0  0  0  0  0  0  0  0
    2.5274    0.8534    0.9385 H   0  0  0  0  0  0  0  0  0  0  0  0
    0.9348    0.3798    1.6525 H   0  0  0  0  0  0  0  0  0  0  0  0
    1.4906    2.2247   -0.6033 H   0  0  0  0  0  0  0  0  0  0  0  0
   -0.5823    2.7057   -1.0959 H   0  0  0  0  0  0  0  0  0  0  0  0
   -2.1844    1.8974    0.7726 H   0  0  0  0  0  0  0  0  0  0  0  0
   -2.4888    1.4232   -0.9097 H   0  0  0  0  0  0  0  0  0  0  0  0
   -1.3794   -0.2184    1.4352 H   0  0  0  0  0  0  0  0  0  0  0  0
   -2.7984   -0.4952    0.3794 H   0  0  0  0  0  0  0  0  0  0  0  0
   -0.5748   -0.5587   -1.4442 H   0  0  0  0  0  0  0  0  0  0  0  0
   -1.5257   -1.9479   -0.7850 H   0  0  0  0  0  0  0  0  0  0  0  0
    0.0440   -1.4376    1.3699 H   0  0  0  0  0  0  0  0  0  0  0  0
    0.4623   -2.6232    0.0522 H   0  0  0  0  0  0  0  0  0  0  0  0
  1  2  1  0
  2  3  1  0
  3  4  1  0
  4  5  2  3
  5  6  1  0
  6  7  1  0
  7  8  1  0
  8  9  1  0
  9  2  1  0
  1 10  1  0
  2 11  1  0
  3 12  1  0
  3 13  1  0
  4 14  1  0
  5 15  1  0
  6 16  1  0
  6 17  1  0
  7 18  1  0
  7 19  1  0
  8 20  1  0
  8 21  1  0
  9 22  1  0
  9 23  1  0
M  END
