
     RDKit          3D

 19 21  0  0  0  0  0  0  0  0999 V2000
   -2.6312    1.1876    0.0088 O   0  0  0  0  0  0  0  0  0  0  0  0
   -1.9396   -0.0453   -0.0419 C   0  0  0  0  0  0  0  0  0  0  0  0
   -0.8497   -0.2066   -0.9040 C   0  0  0  0  0  0  0  0  0  0  0  0
    0.3153   -1.1369   -0.9906 C   0  0  0  0  0  0  0  0  0  0  0  0
    1.3988   -0.2013   -0.4474 C   0  0  0  0  0  0  0  0  0  0  0  0
    1.8773   -0.2311    0.9138 C   0  0  0  0  0  0  0  0  0  0  0  0
    0.5591    0.5632    0.6433 C   0  0  0  0  0  0  0  0  0  0  0  0
    0.6770    1.9394    0.6041 O   0  0  0  0  0  0  0  0  0  0  0  0
   -0.7289   -0.1347    0.6745 C   0  0  0  0  0  0  0  0  0  0  0  0
   -3.3147    1.1280    0.7188 H   0  0  0  0  0  0  0  0  0  0  0  0
   -2.7045   -0.8715   -0.0034 H   0  0  0  0  0  0  0  0  0  0  0  0
   -0.5527    0.7470   -1.4467 H   0  0  0  0  0  0  0  0  0  0  0  0
    0.1700   -2.0049   -0.3364 H   0  0  0  0  0  0  0  0  0  0  0  0
    0.5474   -1.4360   -2.0406 H   0  0  0  0  0  0  0  0  0  0  0  0
    1.8524    0.4484   -1.2137 H   0  0  0  0  0  0  0  0  0  0  0  0
    2.7664    0.3505    1.1507 H   0  0  0  0  0  0  0  0  0  0  0  0
    1.7568   -1.1528    1.5278 H   0  0  0  0  0  0  0  0  0  0  0  0
    1.4052    2.1952   -0.0122 H   0  0  0  0  0  0  0  0  0  0  0  0
   -0.6041   -1.1383    1.1950 H   0  0  0  0  0  0  0  0  0  0  0  0
  1  2  1  0
  2  3  1  0
  3  4  1  0
  4  5  1  0
  5  6  1  0
  6  7  1  0
  7  8  1  0
  7  9  1  0
  9  2  1  0
  9  3  1  0
  7  5  1  0
  1 10  1  0
  2 11  1  0
  3 12  1  0
  4 13  1  0
  4 14  1  0
  5 15  1  0
  6 16  1  0
  6 17  1  0
  8 18  1  0
  9 19  1  0
M  END
