
     RDKit          3D

 17 19  0  0  0  0  0  0  0  0999 V2000
   -2.2614   -0.8032   -0.1497 O   0  0  0  0  0  0  0  0  0  0  0  0
   -0.9737   -0.6717    0.3506 C   0  0  0  0  0  0  0  0  0  0  0  0
    0.0722   -0.8423   -0.7312 C   0  0  0  0  0  0  0  0  0  0  0  0
    1.4563   -1.0302   -0.2106 C   0  0  0  0  0  0  0  0  0  0  0  0
    1.9126    0.1024    0.3087 C   0  0  0  0  0  0  0  0  0  0  0  0
    0.8672    1.1531    0.1805 C   0  0  0  0  0  0  0  0  0  0  0  0
    0.0146    0.6465   -0.9044 C   0  0  0  0  0  0  0  0  0  0  0  0
   -0.5512    0.7887    0.4247 C   0  0  0  0  0  0  0  0  0  0  0  0
   -1.4039    1.7638    0.8388 O   0  0  0  0  0  0  0  0  0  0  0  0
   -2.3317   -1.7184   -0.5224 H   0  0  0  0  0  0  0  0  0  0  0  0
   -0.8008   -1.2149    1.2819 H   0  0  0  0  0  0  0  0  0  0  0  0
   -0.2104   -1.4621   -1.5825 H   0  0  0  0  0  0  0  0  0  0  0  0
    2.0508   -1.9382   -0.2277 H   0  0  0  0  0  0  0  0  0  0  0  0
    2.8789    0.2661    0.7576 H   0  0  0  0  0  0  0  0  0  0  0  0
    1.1147    2.2068    0.1698 H   0  0  0  0  0  0  0  0  0  0  0  0
   -0.2548    1.1442   -1.8063 H   0  0  0  0  0  0  0  0  0  0  0  0
   -1.5794    1.6094    1.8221 H   0  0  0  0  0  0  0  0  0  0  0  0
  1  2  1  0
  2  3  1  0
  3  4  1  0
  4  5  2  0
  5  6  1  0
  6  7  1  0
  7  8  1  0
  8  9  1  0
  8  2  1  0
  7  3  1  0
  8  6  1  0
  1 10  1  0
  2 11  1  0
  3 12  1  0
  4 13  1  0
  5 14  1  0
  6 15  1  0
  7 16  1  0
  9 17  1  0
M  END
