
     RDKit          3D

 19 20  0  0  0  0  0  0  0  0999 V2000
    2.5627    0.8963   -0.5021 O   0  0  0  0  0  0  0  0  0  0  0  0
    1.3372    0.5259    0.0982 C   0  0  0  0  0  0  0  0  0  0  0  0
    1.1277   -0.9134    0.2623 C   0  0  0  0  0  0  0  0  0  0  0  0
    2.1132   -1.7937   -0.2424 O   0  0  0  0  0  0  0  0  0  0  0  0
    0.3214   -0.1165   -0.7535 C   0  0  0  0  0  0  0  0  0  0  0  0
   -1.1479   -0.0198   -0.4719 C   0  0  0  0  0  0  0  0  0  0  0  0
   -1.9360   -0.7111   -1.4172 O   0  0  0  0  0  0  0  0  0  0  0  0
   -1.5762   -0.1175    0.9550 C   0  0  0  0  0  0  0  0  0  0  0  0
   -1.7728    1.1308    0.1663 C   0  0  0  0  0  0  0  0  0  0  0  0
    3.2605    0.8270    0.1866 H   0  0  0  0  0  0  0  0  0  0  0  0
    0.9923    1.2886    0.8178 H   0  0  0  0  0  0  0  0  0  0  0  0
    0.5748   -1.3574    1.1016 H   0  0  0  0  0  0  0  0  0  0  0  0
    2.8275   -1.7892    0.4724 H   0  0  0  0  0  0  0  0  0  0  0  0
    0.6277   -0.3044   -1.8108 H   0  0  0  0  0  0  0  0  0  0  0  0
   -2.0100   -0.0994   -2.2046 H   0  0  0  0  0  0  0  0  0  0  0  0
   -0.8450   -0.0574    1.7770 H   0  0  0  0  0  0  0  0  0  0  0  0
   -2.4145   -0.8001    1.1617 H   0  0  0  0  0  0  0  0  0  0  0  0
   -1.2082    2.0402    0.4917 H   0  0  0  0  0  0  0  0  0  0  0  0
   -2.8344    1.3713   -0.0573 H   0  0  0  0  0  0  0  0  0  0  0  0
  1  2  1  0
  2  3  1  0
  3  4  1  0
  3  5  1  0
  5  6  1  0
  6  7  1  0
  6  8  1  0
  8  9  1  0
  5  2  1  0
  9  6  1  0
  1 10  1  0
  2 11  1  0
  3 12  1  0
  4 13  1  0
  5 14  1  0
  7 15  1  0
  8 16  1  0
  8 17  1  0
  9 18  1  0
  9 19  1  0
M  END
