
     RDKit          3D

 17 19  0  0  0  0  0  0  0  0999 V2000
    2.4381   -0.7337    0.2194 O   0  0  0  0  0  0  0  0  0  0  0  0
    1.5111    0.2306   -0.0511 C   0  0  0  0  0  0  0  0  0  0  0  0
    0.4356   -0.1123   -1.0486 C   0  0  0  0  0  0  0  0  0  0  0  0
   -0.3344    0.9929   -0.3860 C   0  0  0  0  0  0  0  0  0  0  0  0
   -1.6825    0.9430   -0.5625 O   0  0  0  0  0  0  0  0  0  0  0  0
   -2.1889   -0.1590    0.1331 C   0  0  0  0  0  0  0  0  0  0  0  0
   -1.4522   -1.3098   -0.1340 O   0  0  0  0  0  0  0  0  0  0  0  0
   -0.1208   -1.0174    0.0090 C   0  0  0  0  0  0  0  0  0  0  0  0
    0.2446    0.2138    0.7653 C   0  0  0  0  0  0  0  0  0  0  0  0
    3.2159   -0.2757    0.6727 H   0  0  0  0  0  0  0  0  0  0  0  0
    1.9375    1.2495   -0.1683 H   0  0  0  0  0  0  0  0  0  0  0  0
    0.5448   -0.2894   -2.0241 H   0  0  0  0  0  0  0  0  0  0  0  0
    0.1434    2.0027   -0.4173 H   0  0  0  0  0  0  0  0  0  0  0  0
   -3.2540   -0.2505   -0.1814 H   0  0  0  0  0  0  0  0  0  0  0  0
   -2.0942    0.0143    1.2374 H   0  0  0  0  0  0  0  0  0  0  0  0
    0.5056   -1.9094    0.1959 H   0  0  0  0  0  0  0  0  0  0  0  0
    0.1503    0.4103    1.7403 H   0  0  0  0  0  0  0  0  0  0  0  0
  1  2  1  0
  2  3  1  0
  3  4  1  0
  4  5  1  0
  5  6  1  0
  6  7  1  0
  7  8  1  0
  8  9  1  0
  9  2  1  0
  8  3  1  0
  9  4  1  0
  1 10  1  0
  2 11  1  0
  3 12  1  0
  4 13  1  0
  6 14  1  0
  6 15  1  0
  8 16  1  0
  9 17  1  0
M  END
