
     RDKit          3D

 19 21  0  0  0  0  0  0  0  0999 V2000
   -1.7443   -1.1364   -0.9788 O   0  0  0  0  0  0  0  0  0  0  0  0
   -1.4527   -0.4260    0.1982 C   0  0  0  0  0  0  0  0  0  0  0  0
   -0.2748   -1.1148    0.8989 C   0  0  0  0  0  0  0  0  0  0  0  0
    0.6148   -0.1371    0.2023 C   0  0  0  0  0  0  0  0  0  0  0  0
    1.6534   -0.5645   -0.7687 C   0  0  0  0  0  0  0  0  0  0  0  0
    1.9659    0.1707    0.5371 C   0  0  0  0  0  0  0  0  0  0  0  0
   -0.5099    0.7008   -0.1313 C   0  0  0  0  0  0  0  0  0  0  0  0
   -0.8443    2.0087   -0.0902 C   0  0  0  0  0  0  0  0  0  0  0  0
   -0.6399    1.2767   -1.3693 O   0  0  0  0  0  0  0  0  0  0  0  0
   -2.4934   -1.7453   -0.8849 H   0  0  0  0  0  0  0  0  0  0  0  0
   -2.2959   -0.1963    0.8400 H   0  0  0  0  0  0  0  0  0  0  0  0
   -0.0824   -2.1458    0.5377 H   0  0  0  0  0  0  0  0  0  0  0  0
   -0.3211   -1.0281    2.0108 H   0  0  0  0  0  0  0  0  0  0  0  0
    1.8335   -1.6490   -0.8220 H   0  0  0  0  0  0  0  0  0  0  0  0
    1.6810    0.0488   -1.7075 H   0  0  0  0  0  0  0  0  0  0  0  0
    2.4078    1.1640    0.3943 H   0  0  0  0  0  0  0  0  0  0  0  0
    2.5004   -0.4674    1.2965 H   0  0  0  0  0  0  0  0  0  0  0  0
   -1.8885    2.3844   -0.0592 H   0  0  0  0  0  0  0  0  0  0  0  0
   -0.1097    2.8567   -0.1039 H   0  0  0  0  0  0  0  0  0  0  0  0
  1  2  1  0
  2  3  1  0
  3  4  1  0
  4  5  1  0
  5  6  1  0
  4  7  1  0
  7  8  1  0
  8  9  1  0
  7  2  1  0
  6  4  1  0
  9  7  1  0
  1 10  1  0
  2 11  1  0
  3 12  1  0
  3 13  1  0
  5 14  1  0
  5 15  1  0
  6 16  1  0
  6 17  1  0
  8 18  1  0
  8 19  1  0
M  END
