
     RDKit          3D

 23 24  0  0  0  0  0  0  0  0999 V2000
    2.2636    1.3062   -0.4997 O   0  0  0  0  0  0  0  0  0  0  0  0
    2.6316    0.2848    0.3473 C   0  0  0  0  0  0  0  0  0  0  0  0
    2.8172   -1.0928   -0.2217 C   0  0  0  0  0  0  0  0  0  0  0  0
    1.6136   -0.7323    0.6697 C   0  0  0  0  0  0  0  0  0  0  0  0
    0.2981   -0.8169   -0.0063 C   0  0  0  0  0  0  0  0  0  0  0  0
   -0.5626    0.3987    0.1291 C   0  0  0  0  0  0  0  0  0  0  0  0
   -1.8495    0.1230   -0.6196 C   0  0  0  0  0  0  0  0  0  0  0  0
   -2.9295    1.1278   -0.6857 C   0  0  0  0  0  0  0  0  0  0  0  0
   -3.0710   -0.0466    0.2610 C   0  0  0  0  0  0  0  0  0  0  0  0
    3.0919    1.8083   -0.7686 H   0  0  0  0  0  0  0  0  0  0  0  0
    3.3756    0.5437    1.1386 H   0  0  0  0  0  0  0  0  0  0  0  0
    3.5725   -1.7772    0.1727 H   0  0  0  0  0  0  0  0  0  0  0  0
    2.6436   -1.1607   -1.3089 H   0  0  0  0  0  0  0  0  0  0  0  0
    1.6908   -1.1995    1.6922 H   0  0  0  0  0  0  0  0  0  0  0  0
   -0.2752   -1.6721    0.4560 H   0  0  0  0  0  0  0  0  0  0  0  0
    0.4039   -1.0464   -1.0744 H   0  0  0  0  0  0  0  0  0  0  0  0
   -0.0701    1.2706   -0.3798 H   0  0  0  0  0  0  0  0  0  0  0  0
   -0.7424    0.6885    1.1877 H   0  0  0  0  0  0  0  0  0  0  0  0
   -1.7784   -0.6183   -1.4447 H   0  0  0  0  0  0  0  0  0  0  0  0
   -3.5830    1.0791   -1.5822 H   0  0  0  0  0  0  0  0  0  0  0  0
   -2.7791    2.1356   -0.2734 H   0  0  0  0  0  0  0  0  0  0  0  0
   -2.9616    0.2263    1.3460 H   0  0  0  0  0  0  0  0  0  0  0  0
   -3.8001   -0.8297    0.0310 H   0  0  0  0  0  0  0  0  0  0  0  0
  1  2  1  0
  2  3  1  0
  3  4  1  0
  4  5  1  0
  5  6  1  0
  6  7  1  0
  7  8  1  0
  8  9  1  0
  4  2  1  0
  9  7  1  0
  1 10  1  0
  2 11  1  0
  3 12  1  0
  3 13  1  0
  4 14  1  0
  5 15  1  0
  5 16  1  0
  6 17  1  0
  6 18  1  0
  7 19  1  0
  8 20  1  0
  8 21  1  0
  9 22  1  0
  9 23  1  0
M  END
