
     RDKit          3D

 21 22  0  0  0  0  0  0  0  0999 V2000
    1.1656   -2.0546   -0.7130 O   0  0  0  0  0  0  0  0  0  0  0  0
    1.0663   -0.6755   -0.8664 C   0  0  0  0  0  0  0  0  0  0  0  0
    1.9217    0.0653    0.1752 C   0  0  0  0  0  0  0  0  0  0  0  0
    0.7881    1.0999    0.2009 C   0  0  0  0  0  0  0  0  0  0  0  0
    0.4995    1.6073    1.4442 O   0  0  0  0  0  0  0  0  0  0  0  0
   -0.1009   -0.0189   -0.2428 C   0  0  0  0  0  0  0  0  0  0  0  0
   -1.2971    0.2865   -1.0226 C   0  0  0  0  0  0  0  0  0  0  0  0
   -2.1290   -0.0561    0.2232 C   0  0  0  0  0  0  0  0  0  0  0  0
   -0.8754   -0.7450    0.7787 C   0  0  0  0  0  0  0  0  0  0  0  0
    1.2557   -2.2863    0.2536 H   0  0  0  0  0  0  0  0  0  0  0  0
    1.3357   -0.3815   -1.8886 H   0  0  0  0  0  0  0  0  0  0  0  0
    1.8892   -0.5028    1.1100 H   0  0  0  0  0  0  0  0  0  0  0  0
    2.8760    0.4309   -0.1889 H   0  0  0  0  0  0  0  0  0  0  0  0
    0.9656    1.8483   -0.6105 H   0  0  0  0  0  0  0  0  0  0  0  0
    0.4532    2.6110    1.3500 H   0  0  0  0  0  0  0  0  0  0  0  0
   -1.3644    1.3706   -1.2937 H   0  0  0  0  0  0  0  0  0  0  0  0
   -1.5508   -0.3329   -1.9019 H   0  0  0  0  0  0  0  0  0  0  0  0
   -2.9534   -0.7254   -0.0103 H   0  0  0  0  0  0  0  0  0  0  0  0
   -2.3424    0.8198    0.8675 H   0  0  0  0  0  0  0  0  0  0  0  0
   -0.9545   -1.8365    0.5177 H   0  0  0  0  0  0  0  0  0  0  0  0
   -0.6486   -0.5241    1.8178 H   0  0  0  0  0  0  0  0  0  0  0  0
  1  2  1  0
  2  3  1  0
  3  4  1  0
  4  5  1  0
  4  6  1  0
  6  7  1  0
  7  8  1  0
  8  9  1  0
  6  2  1  0
  9  6  1  0
  1 10  1  0
  2 11  1  0
  3 12  1  0
  3 13  1  0
  4 14  1  0
  5 15  1  0
  7 16  1  0
  7 17  1  0
  8 18  1  0
  8 19  1  0
  9 20  1  0
  9 21  1  0
M  END
