
     RDKit          3D

 18 20  0  0  0  0  0  0  0  0999 V2000
    1.8697    1.5368    0.6440 O   0  0  0  0  0  0  0  0  0  0  0  0
    1.5283    0.2104    0.4816 C   0  0  0  0  0  0  0  0  0  0  0  0
    1.5507   -0.4463   -0.8562 C   0  0  0  0  0  0  0  0  0  0  0  0
    0.3081   -0.2346   -0.1577 C   0  0  0  0  0  0  0  0  0  0  0  0
   -0.5940   -1.2907    0.3642 C   0  0  0  0  0  0  0  0  0  0  0  0
   -1.7683   -0.4439   -0.0106 C   0  0  0  0  0  0  0  0  0  0  0  0
   -1.8406    0.9869    0.3943 C   0  0  0  0  0  0  0  0  0  0  0  0
   -0.8057    0.6424   -0.5990 C   0  0  0  0  0  0  0  0  0  0  0  0
    2.8534    1.6245    0.7617 H   0  0  0  0  0  0  0  0  0  0  0  0
    1.9189   -0.4386    1.3190 H   0  0  0  0  0  0  0  0  0  0  0  0
    1.7550    0.1987   -1.7530 H   0  0  0  0  0  0  0  0  0  0  0  0
    1.9626   -1.4842   -0.9628 H   0  0  0  0  0  0  0  0  0  0  0  0
   -0.5469   -2.2381   -0.2041 H   0  0  0  0  0  0  0  0  0  0  0  0
   -0.4417   -1.4766    1.4452 H   0  0  0  0  0  0  0  0  0  0  0  0
   -2.5186   -0.8518   -0.6846 H   0  0  0  0  0  0  0  0  0  0  0  0
   -2.7876    1.4972    0.0915 H   0  0  0  0  0  0  0  0  0  0  0  0
   -1.4956    1.3261    1.3927 H   0  0  0  0  0  0  0  0  0  0  0  0
   -0.9478    0.8817   -1.6661 H   0  0  0  0  0  0  0  0  0  0  0  0
  1  2  1  0
  2  3  1  0
  3  4  1  0
  4  5  1  0
  5  6  1  0
  6  7  1  0
  7  8  1  0
  4  2  1  0
  8  6  1  0
  8  4  1  0
  1  9  1  0
  2 10  1  0
  3 11  1  0
  3 12  1  0
  5 13  1  0
  5 14  1  0
  6 15  1  0
  7 16  1  0
  7 17  1  0
  8 18  1  0
M  END
