
     RDKit          3D

 19 21  0  0  0  0  0  0  0  0999 V2000
   -0.9142    1.0614    1.6406 O   0  0  0  0  0  0  0  0  0  0  0  0
   -0.9320    0.6949    0.3162 C   0  0  0  0  0  0  0  0  0  0  0  0
   -1.8778   -0.4743    0.0074 C   0  0  0  0  0  0  0  0  0  0  0  0
   -0.7815   -0.9831   -0.9383 C   0  0  0  0  0  0  0  0  0  0  0  0
    0.1694   -0.1199   -0.2145 C   0  0  0  0  0  0  0  0  0  0  0  0
    1.2836    0.5141   -0.9367 C   0  0  0  0  0  0  0  0  0  0  0  0
    2.2082    0.0855    0.2048 C   0  0  0  0  0  0  0  0  0  0  0  0
    2.3052   -1.2606    0.3847 O   0  0  0  0  0  0  0  0  0  0  0  0
    1.0991   -0.7508    0.7687 C   0  0  0  0  0  0  0  0  0  0  0  0
   -1.3433    1.9688    1.7107 H   0  0  0  0  0  0  0  0  0  0  0  0
   -1.1733    1.5465   -0.3824 H   0  0  0  0  0  0  0  0  0  0  0  0
   -2.0185   -1.0743    0.9102 H   0  0  0  0  0  0  0  0  0  0  0  0
   -2.7934   -0.1462   -0.4800 H   0  0  0  0  0  0  0  0  0  0  0  0
   -1.0323   -0.6886   -1.9733 H   0  0  0  0  0  0  0  0  0  0  0  0
   -0.5888   -2.0810   -0.8362 H   0  0  0  0  0  0  0  0  0  0  0  0
    1.5945    0.0352   -1.9058 H   0  0  0  0  0  0  0  0  0  0  0  0
    1.2670    1.6184   -0.9605 H   0  0  0  0  0  0  0  0  0  0  0  0
    2.6552    0.8265    0.8516 H   0  0  0  0  0  0  0  0  0  0  0  0
    0.8730   -0.7724    1.8327 H   0  0  0  0  0  0  0  0  0  0  0  0
  1  2  1  0
  2  3  1  0
  3  4  1  0
  4  5  1  0
  5  6  1  0
  6  7  1  0
  7  8  1  0
  8  9  1  0
  5  2  1  0
  9  7  1  0
  9  5  1  0
  1 10  1  0
  2 11  1  0
  3 12  1  0
  3 13  1  0
  4 14  1  0
  4 15  1  0
  6 16  1  0
  6 17  1  0
  7 18  1  0
  9 19  1  0
M  END
