
     RDKit          3D

 19 21  0  0  0  0  0  0  0  0999 V2000
    3.0763    0.2101    1.1464 O   0  0  0  0  0  0  0  0  0  0  0  0
    1.9750   -0.3787    0.5393 C   0  0  0  0  0  0  0  0  0  0  0  0
    1.4638    0.3758   -0.6581 C   0  0  0  0  0  0  0  0  0  0  0  0
    0.6575    0.2822    0.6244 C   0  0  0  0  0  0  0  0  0  0  0  0
   -0.6196   -0.4203    0.5804 C   0  0  0  0  0  0  0  0  0  0  0  0
   -1.9410    0.3326    0.6694 C   0  0  0  0  0  0  0  0  0  0  0  0
   -2.1216    0.0014   -0.7974 C   0  0  0  0  0  0  0  0  0  0  0  0
   -1.0414   -1.0185   -0.7298 C   0  0  0  0  0  0  0  0  0  0  0  0
   -0.7948   -1.7607    0.4089 O   0  0  0  0  0  0  0  0  0  0  0  0
    3.3620    1.0471    0.6961 H   0  0  0  0  0  0  0  0  0  0  0  0
    2.0433   -1.4837    0.4871 H   0  0  0  0  0  0  0  0  0  0  0  0
    1.8678    1.3938   -0.8646 H   0  0  0  0  0  0  0  0  0  0  0  0
    1.2771   -0.2399   -1.5225 H   0  0  0  0  0  0  0  0  0  0  0  0
    0.6629    1.2015    1.2858 H   0  0  0  0  0  0  0  0  0  0  0  0
   -1.8511    1.3995    0.9130 H   0  0  0  0  0  0  0  0  0  0  0  0
   -2.6612   -0.2539    1.2756 H   0  0  0  0  0  0  0  0  0  0  0  0
   -3.1021   -0.3751   -1.0934 H   0  0  0  0  0  0  0  0  0  0  0  0
   -1.8508    0.9195   -1.3966 H   0  0  0  0  0  0  0  0  0  0  0  0
   -0.4020   -1.2326   -1.5640 H   0  0  0  0  0  0  0  0  0  0  0  0
  1  2  1  0
  2  3  1  0
  3  4  1  0
  4  5  1  0
  5  6  1  0
  6  7  1  0
  7  8  1  0
  8  9  1  0
  4  2  1  0
  8  5  1  0
  9  5  1  0
  1 10  1  0
  2 11  1  0
  3 12  1  0
  3 13  1  0
  4 14  1  0
  6 15  1  0
  6 16  1  0
  7 17  1  0
  7 18  1  0
  8 19  1  0
M  END
