
     RDKit          3D

 19 20  0  0  0  0  0  0  0  0999 V2000
    2.6914   -0.4273    0.0582 O   0  0  0  0  0  0  0  0  0  0  0  0
    1.4923   -0.4973   -0.6152 C   0  0  0  0  0  0  0  0  0  0  0  0
    0.4938   -1.3650    0.1649 C   0  0  0  0  0  0  0  0  0  0  0  0
   -0.4434   -0.2375    0.1356 C   0  0  0  0  0  0  0  0  0  0  0  0
   -1.7307   -0.3809   -0.6024 C   0  0  0  0  0  0  0  0  0  0  0  0
   -2.0678    0.7340    0.4008 C   0  0  0  0  0  0  0  0  0  0  0  0
   -1.1350    0.1084    1.2621 O   0  0  0  0  0  0  0  0  0  0  0  0
    0.5667    0.7054   -0.3961 C   0  0  0  0  0  0  0  0  0  0  0  0
    1.0995    1.5547    0.5651 O   0  0  0  0  0  0  0  0  0  0  0  0
    3.3723   -0.1012   -0.5752 H   0  0  0  0  0  0  0  0  0  0  0  0
    1.5361   -0.7144   -1.6889 H   0  0  0  0  0  0  0  0  0  0  0  0
    0.8725   -1.7303    1.1310 H   0  0  0  0  0  0  0  0  0  0  0  0
    0.1742   -2.2012   -0.4842 H   0  0  0  0  0  0  0  0  0  0  0  0
   -2.2242   -1.3535   -0.3536 H   0  0  0  0  0  0  0  0  0  0  0  0
   -1.7652   -0.0789   -1.6491 H   0  0  0  0  0  0  0  0  0  0  0  0
   -1.6538    1.6784   -0.0019 H   0  0  0  0  0  0  0  0  0  0  0  0
   -3.0958    0.7395    0.7540 H   0  0  0  0  0  0  0  0  0  0  0  0
    0.2696    1.2261   -1.3130 H   0  0  0  0  0  0  0  0  0  0  0  0
    1.5476    2.3410    0.1776 H   0  0  0  0  0  0  0  0  0  0  0  0
  1  2  1  0
  2  3  1  0
  3  4  1  0
  4  5  1  0
  5  6  1  0
  6  7  1  0
  4  8  1  0
  8  9  1  0
  8  2  1  0
  7  4  1  0
  1 10  1  0
  2 11  1  0
  3 12  1  0
  3 13  1  0
  5 14  1  0
  5 15  1  0
  6 16  1  0
  6 17  1  0
  8 18  1  0
  9 19  1  0
M  END
