
     RDKit          3D

 18 19  0  0  0  0  0  0  0  0999 V2000
   -1.2130    1.5388    0.8047 O   0  0  0  0  0  0  0  0  0  0  0  0
   -1.0562    0.1582    0.7463 C   0  0  0  0  0  0  0  0  0  0  0  0
   -1.7589   -0.5175   -0.4135 C   0  0  0  0  0  0  0  0  0  0  0  0
   -0.4264   -0.5472   -1.1758 C   0  0  0  0  0  0  0  0  0  0  0  0
    0.2464   -0.1925    0.0981 C   0  0  0  0  0  0  0  0  0  0  0  0
    1.3157    0.8233    0.0867 C   0  0  0  0  0  0  0  0  0  0  0  0
    2.1499   -0.4413    0.2659 C   0  0  0  0  0  0  0  0  0  0  0  0
    1.0136   -1.1546    0.7130 O   0  0  0  0  0  0  0  0  0  0  0  0
   -2.0663    1.8178    1.1981 H   0  0  0  0  0  0  0  0  0  0  0  0
   -1.1721   -0.3347    1.7257 H   0  0  0  0  0  0  0  0  0  0  0  0
   -2.1657   -1.5274   -0.1932 H   0  0  0  0  0  0  0  0  0  0  0  0
   -2.5113    0.0782   -0.9368 H   0  0  0  0  0  0  0  0  0  0  0  0
   -0.2109   -1.5633   -1.5941 H   0  0  0  0  0  0  0  0  0  0  0  0
   -0.3821    0.2472   -1.9493 H   0  0  0  0  0  0  0  0  0  0  0  0
    1.5099    1.3947   -0.8191 H   0  0  0  0  0  0  0  0  0  0  0  0
    1.3516    1.4617    1.0082 H   0  0  0  0  0  0  0  0  0  0  0  0
    2.8510   -0.3544    1.1039 H   0  0  0  0  0  0  0  0  0  0  0  0
    2.5250   -0.8869   -0.6686 H   0  0  0  0  0  0  0  0  0  0  0  0
  1  2  1  0
  2  3  1  0
  3  4  1  0
  4  5  1  0
  5  6  1  0
  6  7  1  0
  7  8  1  0
  5  2  1  0
  8  5  1  0
  1  9  1  0
  2 10  1  0
  3 11  1  0
  3 12  1  0
  4 13  1  0
  4 14  1  0
  6 15  1  0
  6 16  1  0
  7 17  1  0
  7 18  1  0
M  END
