
     RDKit          3D

 21 21  0  0  0  0  0  0  0  0999 V2000
    2.7276    0.2942   -0.8130 O   0  0  0  0  0  0  0  0  0  0  0  0
    1.7834    0.1335    0.1730 C   0  0  0  0  0  0  0  0  0  0  0  0
    0.8612    1.2881    0.2701 C   0  0  0  0  0  0  0  0  0  0  0  0
   -0.3897    1.4692   -0.0718 C   0  0  0  0  0  0  0  0  0  0  0  0
   -1.3165    0.5185   -0.6963 C   0  0  0  0  0  0  0  0  0  0  0  0
   -2.5908    1.1071   -0.7107 O   0  0  0  0  0  0  0  0  0  0  0  0
   -1.4300   -0.7941   -0.0053 C   0  0  0  0  0  0  0  0  0  0  0  0
   -0.2192   -1.1705    0.8066 C   0  0  0  0  0  0  0  0  0  0  0  0
    1.0481   -1.1759    0.0206 C   0  0  0  0  0  0  0  0  0  0  0  0
    2.2936    0.5221   -1.6625 H   0  0  0  0  0  0  0  0  0  0  0  0
    2.3393    0.0961    1.1557 H   0  0  0  0  0  0  0  0  0  0  0  0
    1.3486    2.1642    0.7272 H   0  0  0  0  0  0  0  0  0  0  0  0
   -0.7612    2.4838    0.1552 H   0  0  0  0  0  0  0  0  0  0  0  0
   -1.0547    0.3721   -1.7848 H   0  0  0  0  0  0  0  0  0  0  0  0
   -2.8174    1.3381    0.2265 H   0  0  0  0  0  0  0  0  0  0  0  0
   -2.3078   -0.8233    0.6844 H   0  0  0  0  0  0  0  0  0  0  0  0
   -1.6113   -1.5765   -0.7774 H   0  0  0  0  0  0  0  0  0  0  0  0
   -0.1336   -0.5813    1.7294 H   0  0  0  0  0  0  0  0  0  0  0  0
   -0.3974   -2.2339    1.1451 H   0  0  0  0  0  0  0  0  0  0  0  0
    0.8956   -1.4699   -1.0291 H   0  0  0  0  0  0  0  0  0  0  0  0
    1.7323   -1.9616    0.4570 H   0  0  0  0  0  0  0  0  0  0  0  0
  1  2  1  0
  2  3  1  0
  3  4  2  0
  4  5  1  0
  5  6  1  0
  5  7  1  0
  7  8  1  0
  8  9  1  0
  9  2  1  0
  1 10  1  0
  2 11  1  0
  3 12  1  0
  4 13  1  0
  5 14  1  0
  6 15  1  0
  7 16  1  0
  7 17  1  0
  8 18  1  0
  8 19  1  0
  9 20  1  0
  9 21  1  0
M  END
