
     RDKit          3D

 21 22  0  0  0  0  0  0  0  0999 V2000
   -1.6650   -1.5646   -0.4306 O   0  0  0  0  0  0  0  0  0  0  0  0
   -1.2520   -0.5971    0.4736 C   0  0  0  0  0  0  0  0  0  0  0  0
   -1.6741    0.7513   -0.0207 C   0  0  0  0  0  0  0  0  0  0  0  0
   -0.4164    1.2789   -0.6663 C   0  0  0  0  0  0  0  0  0  0  0  0
    0.6267    0.9140    0.3285 C   0  0  0  0  0  0  0  0  0  0  0  0
    1.9930    0.7584   -0.2266 C   0  0  0  0  0  0  0  0  0  0  0  0
    2.1887   -0.4530   -0.7107 C   0  0  0  0  0  0  0  0  0  0  0  0
    0.9465   -1.2258   -0.5187 C   0  0  0  0  0  0  0  0  0  0  0  0
    0.2500   -0.5507    0.6186 C   0  0  0  0  0  0  0  0  0  0  0  0
   -2.6186   -1.7933   -0.2371 H   0  0  0  0  0  0  0  0  0  0  0  0
   -1.6707   -0.8364    1.4663 H   0  0  0  0  0  0  0  0  0  0  0  0
   -1.8831    1.3843    0.8637 H   0  0  0  0  0  0  0  0  0  0  0  0
   -2.5371    0.7256   -0.7159 H   0  0  0  0  0  0  0  0  0  0  0  0
   -0.2130    0.8625   -1.6563 H   0  0  0  0  0  0  0  0  0  0  0  0
   -0.5558    2.3965   -0.7476 H   0  0  0  0  0  0  0  0  0  0  0  0
    0.6097    1.5243    1.2322 H   0  0  0  0  0  0  0  0  0  0  0  0
    2.7419    1.5424   -0.2352 H   0  0  0  0  0  0  0  0  0  0  0  0
    3.1110   -0.8484   -1.1832 H   0  0  0  0  0  0  0  0  0  0  0  0
    0.2783   -1.0985   -1.4133 H   0  0  0  0  0  0  0  0  0  0  0  0
    1.1399   -2.3048   -0.3334 H   0  0  0  0  0  0  0  0  0  0  0  0
    0.6003   -0.8655    1.6089 H   0  0  0  0  0  0  0  0  0  0  0  0
  1  2  1  0
  2  3  1  0
  3  4  1  0
  4  5  1  0
  5  6  1  0
  6  7  2  0
  7  8  1  0
  8  9  1  0
  9  2  1  0
  9  5  1  0
  1 10  1  0
  2 11  1  0
  3 12  1  0
  3 13  1  0
  4 14  1  0
  4 15  1  0
  5 16  1  0
  6 17  1  0
  7 18  1  0
  8 19  1  0
  8 20  1  0
  9 21  1  0
M  END
