
     RDKit          3D

 18 19  0  0  0  0  0  0  0  0999 V2000
    2.3380   -0.0662   -0.3563 O   0  0  0  0  0  0  0  0  0  0  0  0
    1.2239   -0.1174    0.4356 C   0  0  0  0  0  0  0  0  0  0  0  0
    0.3694   -1.3727    0.1477 C   0  0  0  0  0  0  0  0  0  0  0  0
   -0.7193   -0.7665   -0.6388 C   0  0  0  0  0  0  0  0  0  0  0  0
   -1.9929   -0.2532   -0.3471 C   0  0  0  0  0  0  0  0  0  0  0  0
   -1.0047    0.3609    0.4370 C   0  0  0  0  0  0  0  0  0  0  0  0
    0.2646    1.0620    0.1578 C   0  0  0  0  0  0  0  0  0  0  0  0
    0.5418    2.1386    0.9581 O   0  0  0  0  0  0  0  0  0  0  0  0
    2.2120   -0.2961   -1.2898 H   0  0  0  0  0  0  0  0  0  0  0  0
    1.4945   -0.0595    1.4914 H   0  0  0  0  0  0  0  0  0  0  0  0
    1.0106   -2.0386   -0.4565 H   0  0  0  0  0  0  0  0  0  0  0  0
    0.0790   -1.8806    1.0655 H   0  0  0  0  0  0  0  0  0  0  0  0
   -0.2762   -0.3994   -1.6187 H   0  0  0  0  0  0  0  0  0  0  0  0
   -2.7490   -0.9278    0.1232 H   0  0  0  0  0  0  0  0  0  0  0  0
   -2.5320    0.3882   -1.1072 H   0  0  0  0  0  0  0  0  0  0  0  0
   -0.9722    0.0064    1.5174 H   0  0  0  0  0  0  0  0  0  0  0  0
    0.3668    1.2570   -0.9286 H   0  0  0  0  0  0  0  0  0  0  0  0
    0.3459    2.9651    0.4093 H   0  0  0  0  0  0  0  0  0  0  0  0
  1  2  1  0
  2  3  1  0
  3  4  1  0
  4  5  1  0
  5  6  1  0
  6  7  1  0
  7  8  1  0
  7  2  1  0
  6  4  1  0
  1  9  1  0
  2 10  1  0
  3 11  1  0
  3 12  1  0
  4 13  1  0
  5 14  1  0
  5 15  1  0
  6 16  1  0
  7 17  1  0
  8 18  1  0
M  END
