
     RDKit          3D

 21 22  0  0  0  0  0  0  0  0999 V2000
    3.1159    0.5808   -0.7461 O   0  0  0  0  0  0  0  0  0  0  0  0
    1.7436    0.4534   -0.7503 C   0  0  0  0  0  0  0  0  0  0  0  0
    0.9110    1.0234    0.3803 C   0  0  0  0  0  0  0  0  0  0  0  0
   -0.3726    1.6185    0.1197 C   0  0  0  0  0  0  0  0  0  0  0  0
   -1.5749    1.1643   -0.1401 C   0  0  0  0  0  0  0  0  0  0  0  0
   -1.9940   -0.2439   -0.2502 C   0  0  0  0  0  0  0  0  0  0  0  0
   -1.2232   -1.1274    0.6679 C   0  0  0  0  0  0  0  0  0  0  0  0
    0.1247   -1.3479   -0.0185 C   0  0  0  0  0  0  0  0  0  0  0  0
    1.1508   -0.3821    0.3999 C   0  0  0  0  0  0  0  0  0  0  0  0
    3.4938   -0.1440   -0.1866 H   0  0  0  0  0  0  0  0  0  0  0  0
    1.2507    0.3950   -1.7350 H   0  0  0  0  0  0  0  0  0  0  0  0
    1.5660    1.6476    1.0707 H   0  0  0  0  0  0  0  0  0  0  0  0
   -0.3559    2.7300    0.1370 H   0  0  0  0  0  0  0  0  0  0  0  0
   -2.3856    1.9046   -0.2989 H   0  0  0  0  0  0  0  0  0  0  0  0
   -1.8610   -0.6407   -1.2988 H   0  0  0  0  0  0  0  0  0  0  0  0
   -3.0830   -0.3485    0.0290 H   0  0  0  0  0  0  0  0  0  0  0  0
   -1.7536   -2.1004    0.7374 H   0  0  0  0  0  0  0  0  0  0  0  0
   -1.0564   -0.6557    1.6624 H   0  0  0  0  0  0  0  0  0  0  0  0
   -0.0367   -1.3538   -1.1340 H   0  0  0  0  0  0  0  0  0  0  0  0
    0.4385   -2.3829    0.2222 H   0  0  0  0  0  0  0  0  0  0  0  0
    1.9018   -0.7904    1.1321 H   0  0  0  0  0  0  0  0  0  0  0  0
  1  2  1  0
  2  3  1  0
  3  4  1  0
  4  5  2  0
  5  6  1  0
  6  7  1  0
  7  8  1  0
  8  9  1  0
  9  2  1  0
  9  3  1  0
  1 10  1  0
  2 11  1  0
  3 12  1  0
  4 13  1  0
  5 14  1  0
  6 15  1  0
  6 16  1  0
  7 17  1  0
  7 18  1  0
  8 19  1  0
  8 20  1  0
  9 21  1  0
M  END
