
     RDKit          3D

 21 22  0  0  0  0  0  0  0  0999 V2000
    1.9349    0.1362    1.1709 O   0  0  0  0  0  0  0  0  0  0  0  0
    1.9211   -0.3815   -0.1213 C   0  0  0  0  0  0  0  0  0  0  0  0
    0.6032   -1.0345   -0.5756 C   0  0  0  0  0  0  0  0  0  0  0  0
   -0.4086   -1.2073    0.4694 C   0  0  0  0  0  0  0  0  0  0  0  0
   -1.7615   -0.6313    0.2014 C   0  0  0  0  0  0  0  0  0  0  0  0
   -1.7787    0.8752    0.2776 C   0  0  0  0  0  0  0  0  0  0  0  0
   -1.1547    1.3531   -0.8712 O   0  0  0  0  0  0  0  0  0  0  0  0
    0.2048    1.4486   -0.5822 C   0  0  0  0  0  0  0  0  0  0  0  0
    0.9667    0.2654   -1.0506 C   0  0  0  0  0  0  0  0  0  0  0  0
    2.8301    0.2502    1.5116 H   0  0  0  0  0  0  0  0  0  0  0  0
    2.8562   -0.8637   -0.4759 H   0  0  0  0  0  0  0  0  0  0  0  0
    0.7467   -1.9099   -1.2754 H   0  0  0  0  0  0  0  0  0  0  0  0
   -0.5472   -2.2955    0.6738 H   0  0  0  0  0  0  0  0  0  0  0  0
   -0.0658   -0.7799    1.4558 H   0  0  0  0  0  0  0  0  0  0  0  0
   -2.2349   -0.9821   -0.7142 H   0  0  0  0  0  0  0  0  0  0  0  0
   -2.4240   -0.9782    1.0499 H   0  0  0  0  0  0  0  0  0  0  0  0
   -2.8258    1.2235    0.3783 H   0  0  0  0  0  0  0  0  0  0  0  0
   -1.1791    1.2062    1.1710 H   0  0  0  0  0  0  0  0  0  0  0  0
    0.5897    2.3642   -1.0958 H   0  0  0  0  0  0  0  0  0  0  0  0
    0.3824    1.5852    0.5096 H   0  0  0  0  0  0  0  0  0  0  0  0
    1.3445    0.3560   -2.1071 H   0  0  0  0  0  0  0  0  0  0  0  0
  1  2  1  0
  2  3  1  0
  3  4  1  0
  4  5  1  0
  5  6  1  0
  6  7  1  0
  7  8  1  0
  8  9  1  0
  9  2  1  0
  9  3  1  0
  1 10  1  0
  2 11  1  0
  3 12  1  0
  4 13  1  0
  4 14  1  0
  5 15  1  0
  5 16  1  0
  6 17  1  0
  6 18  1  0
  8 19  1  0
  8 20  1  0
  9 21  1  0
M  END
