
     RDKit          3D

 19 21  0  0  0  0  0  0  0  0999 V2000
    2.5926   -0.6967   -0.4358 O   0  0  0  0  0  0  0  0  0  0  0  0
    1.4233   -0.4669    0.3143 C   0  0  0  0  0  0  0  0  0  0  0  0
    1.1122    0.9949    0.4400 C   0  0  0  0  0  0  0  0  0  0  0  0
   -0.1561    0.8052   -0.3507 C   0  0  0  0  0  0  0  0  0  0  0  0
   -1.4304    0.9065    0.3985 C   0  0  0  0  0  0  0  0  0  0  0  0
   -1.8958   -0.4653    0.5848 C   0  0  0  0  0  0  0  0  0  0  0  0
   -1.0063   -1.3090    0.0975 C   0  0  0  0  0  0  0  0  0  0  0  0
    0.1756   -0.6717   -0.4834 C   0  0  0  0  0  0  0  0  0  0  0  0
   -0.0248    0.2306   -1.6882 C   0  0  0  0  0  0  0  0  0  0  0  0
    2.4333   -1.5454   -0.9471 H   0  0  0  0  0  0  0  0  0  0  0  0
    1.4245   -1.0513    1.2338 H   0  0  0  0  0  0  0  0  0  0  0  0
    1.8131    1.6833   -0.0742 H   0  0  0  0  0  0  0  0  0  0  0  0
    0.9179    1.3750    1.4582 H   0  0  0  0  0  0  0  0  0  0  0  0
   -2.1283    1.5433   -0.1898 H   0  0  0  0  0  0  0  0  0  0  0  0
   -1.2463    1.3927    1.3995 H   0  0  0  0  0  0  0  0  0  0  0  0
   -2.8587   -0.7359    1.0674 H   0  0  0  0  0  0  0  0  0  0  0  0
   -1.1935   -2.3989    0.1521 H   0  0  0  0  0  0  0  0  0  0  0  0
   -0.8783   -0.0657   -2.3111 H   0  0  0  0  0  0  0  0  0  0  0  0
    0.9262    0.4752   -2.2308 H   0  0  0  0  0  0  0  0  0  0  0  0
  1  2  1  0
  2  3  1  0
  3  4  1  0
  4  5  1  0
  5  6  1  0
  6  7  2  0
  7  8  1  0
  8  9  1  0
  8  2  1  0
  8  4  1  0
  9  4  1  0
  1 10  1  0
  2 11  1  0
  3 12  1  0
  3 13  1  0
  5 14  1  0
  5 15  1  0
  6 16  1  0
  7 17  1  0
  9 18  1  0
  9 19  1  0
M  END
