
     RDKit          3D

 19 20  0  0  0  0  0  0  0  0999 V2000
   -0.5978   -0.4198   -1.9466 O   0  0  0  0  0  0  0  0  0  0  0  0
   -0.9430    0.1238   -0.7308 C   0  0  0  0  0  0  0  0  0  0  0  0
    0.0759    1.1677   -0.2549 C   0  0  0  0  0  0  0  0  0  0  0  0
   -0.3083    1.2649    1.1830 C   0  0  0  0  0  0  0  0  0  0  0  0
   -0.6046    0.0207    1.5685 C   0  0  0  0  0  0  0  0  0  0  0  0
   -0.7519   -0.8799    0.4140 C   0  0  0  0  0  0  0  0  0  0  0  0
    0.6134   -1.5196    0.1304 C   0  0  0  0  0  0  0  0  0  0  0  0
    1.5623   -0.5688    0.4392 O   0  0  0  0  0  0  0  0  0  0  0  0
    1.4752    0.5839   -0.3073 C   0  0  0  0  0  0  0  0  0  0  0  0
   -1.4026   -0.3923   -2.5413 H   0  0  0  0  0  0  0  0  0  0  0  0
   -1.9407    0.5859   -0.7007 H   0  0  0  0  0  0  0  0  0  0  0  0
    0.0043    2.1028   -0.7952 H   0  0  0  0  0  0  0  0  0  0  0  0
   -0.3409    2.1741    1.7990 H   0  0  0  0  0  0  0  0  0  0  0  0
   -0.7212   -0.2825    2.6120 H   0  0  0  0  0  0  0  0  0  0  0  0
   -1.5524   -1.6036    0.4791 H   0  0  0  0  0  0  0  0  0  0  0  0
    0.6518   -1.7781   -0.9669 H   0  0  0  0  0  0  0  0  0  0  0  0
    0.7793   -2.4099    0.7358 H   0  0  0  0  0  0  0  0  0  0  0  0
    2.1326    1.3451    0.2048 H   0  0  0  0  0  0  0  0  0  0  0  0
    1.8686    0.4858   -1.3222 H   0  0  0  0  0  0  0  0  0  0  0  0
  1  2  1  0
  2  3  1  0
  3  4  1  0
  4  5  2  0
  5  6  1  0
  6  7  1  0
  7  8  1  0
  8  9  1  0
  6  2  1  0
  9  3  1  0
  1 10  1  0
  2 11  1  0
  3 12  1  0
  4 13  1  0
  5 14  1  0
  6 15  1  0
  7 16  1  0
  7 17  1  0
  9 18  1  0
  9 19  1  0
M  END
