
     RDKit          3D

 19 21  0  0  0  0  0  0  0  0999 V2000
   -0.8226    1.6359   -0.3581 O   0  0  0  0  0  0  0  0  0  0  0  0
   -1.0575    0.5793    0.4796 C   0  0  0  0  0  0  0  0  0  0  0  0
   -2.1460   -0.3078   -0.1411 C   0  0  0  0  0  0  0  0  0  0  0  0
   -2.3711   -1.5565    0.3671 O   0  0  0  0  0  0  0  0  0  0  0  0
   -1.2344   -1.3002   -0.3612 C   0  0  0  0  0  0  0  0  0  0  0  0
   -0.1617   -0.5873    0.4783 C   0  0  0  0  0  0  0  0  0  0  0  0
    1.1267   -0.5920   -0.2140 C   0  0  0  0  0  0  0  0  0  0  0  0
    2.1131    0.4902    0.2867 C   0  0  0  0  0  0  0  0  0  0  0  0
    1.6388    0.3665   -1.1621 C   0  0  0  0  0  0  0  0  0  0  0  0
   -1.6830    1.9356   -0.7721 H   0  0  0  0  0  0  0  0  0  0  0  0
   -1.4027    0.9415    1.4784 H   0  0  0  0  0  0  0  0  0  0  0  0
   -2.9563    0.1474   -0.6975 H   0  0  0  0  0  0  0  0  0  0  0  0
   -0.9291   -1.9017   -1.2116 H   0  0  0  0  0  0  0  0  0  0  0  0
   -0.1065   -1.0438    1.5105 H   0  0  0  0  0  0  0  0  0  0  0  0
    1.6155   -1.6142   -0.2171 H   0  0  0  0  0  0  0  0  0  0  0  0
    1.6770    1.3572    0.8076 H   0  0  0  0  0  0  0  0  0  0  0  0
    3.1218    0.2007    0.5573 H   0  0  0  0  0  0  0  0  0  0  0  0
    1.0951    1.2101   -1.6075 H   0  0  0  0  0  0  0  0  0  0  0  0
    2.4827    0.0391   -1.8395 H   0  0  0  0  0  0  0  0  0  0  0  0
  1  2  1  0
  2  3  1  0
  3  4  1  0
  4  5  1  0
  5  6  1  0
  6  7  1  0
  7  8  1  0
  8  9  1  0
  6  2  1  0
  9  7  1  0
  5  3  1  0
  1 10  1  0
  2 11  1  0
  3 12  1  0
  5 13  1  0
  6 14  1  0
  7 15  1  0
  8 16  1  0
  8 17  1  0
  9 18  1  0
  9 19  1  0
M  END
