
     RDKit          3D

 21 21  0  0  0  0  0  0  0  0999 V2000
    2.8938    0.1356    0.2359 O   0  0  0  0  0  0  0  0  0  0  0  0
    1.6391    0.0605   -0.4255 C   0  0  0  0  0  0  0  0  0  0  0  0
    0.8684    1.2330   -0.1359 C   0  0  0  0  0  0  0  0  0  0  0  0
   -0.3121    1.8002    0.0536 C   0  0  0  0  0  0  0  0  0  0  0  0
   -1.6848    1.2564    0.0258 C   0  0  0  0  0  0  0  0  0  0  0  0
   -2.1986    0.0258    0.1101 C   0  0  0  0  0  0  0  0  0  0  0  0
   -1.6118   -1.3826    0.2732 C   0  0  0  0  0  0  0  0  0  0  0  0
   -0.2307   -1.1147    0.0760 C   0  0  0  0  0  0  0  0  0  0  0  0
    1.1125   -1.3300   -0.0556 C   0  0  0  0  0  0  0  0  0  0  0  0
    3.4344    0.8653   -0.1565 H   0  0  0  0  0  0  0  0  0  0  0  0
    1.9557   -0.0075   -1.5142 H   0  0  0  0  0  0  0  0  0  0  0  0
    1.5896    2.0811   -0.0062 H   0  0  0  0  0  0  0  0  0  0  0  0
   -0.3326    2.8534    0.2721 H   0  0  0  0  0  0  0  0  0  0  0  0
   -2.4232    2.0593   -0.0902 H   0  0  0  0  0  0  0  0  0  0  0  0
   -3.2344    0.0071    0.0500 H   0  0  0  0  0  0  0  0  0  0  0  0
   -1.9259   -1.7672    1.2624 H   0  0  0  0  0  0  0  0  0  0  0  0
   -2.0568   -2.0367   -0.5254 H   0  0  0  0  0  0  0  0  0  0  0  0
   -0.3931   -0.5625   -0.9324 H   0  0  0  0  0  0  0  0  0  0  0  0
   -0.1542   -0.3770    0.9666 H   0  0  0  0  0  0  0  0  0  0  0  0
    1.4382   -2.0722   -0.8467 H   0  0  0  0  0  0  0  0  0  0  0  0
    1.6263   -1.7272    0.8675 H   0  0  0  0  0  0  0  0  0  0  0  0
  1  2  1  0
  2  3  1  0
  3  4  2  3
  4  5  1  0
  5  6  2  3
  6  7  1  0
  7  8  1  0
  8  9  1  0
  9  2  1  0
  1 10  1  0
  2 11  1  0
  3 12  1  0
  4 13  1  0
  5 14  1  0
  6 15  1  0
  7 16  1  0
  7 17  1  0
  8 18  1  0
  8 19  1  0
  9 20  1  0
  9 21  1  0
M  END
