
     RDKit          3D

 19 20  0  0  0  0  0  0  0  0999 V2000
   -2.4314   -0.9706    1.0650 O   0  0  0  0  0  0  0  0  0  0  0  0
   -1.5951   -0.5406    0.0591 C   0  0  0  0  0  0  0  0  0  0  0  0
   -0.1588   -0.8480    0.2119 C   0  0  0  0  0  0  0  0  0  0  0  0
    1.0289   -1.3396    0.4753 C   0  0  0  0  0  0  0  0  0  0  0  0
    2.0957   -0.4738   -0.0415 C   0  0  0  0  0  0  0  0  0  0  0  0
    1.4081    0.8996   -0.1044 C   0  0  0  0  0  0  0  0  0  0  0  0
    0.0425    0.4517   -0.5576 C   0  0  0  0  0  0  0  0  0  0  0  0
   -1.1448    0.9289    0.2097 C   0  0  0  0  0  0  0  0  0  0  0  0
   -1.9795    1.8271   -0.3912 O   0  0  0  0  0  0  0  0  0  0  0  0
   -2.3595   -1.9483    1.1896 H   0  0  0  0  0  0  0  0  0  0  0  0
   -1.9255   -0.7705   -0.9662 H   0  0  0  0  0  0  0  0  0  0  0  0
    1.2717   -2.2794    1.0129 H   0  0  0  0  0  0  0  0  0  0  0  0
    2.3091   -0.7747   -1.0879 H   0  0  0  0  0  0  0  0  0  0  0  0
    2.9934   -0.4275    0.5903 H   0  0  0  0  0  0  0  0  0  0  0  0
    1.9145    1.5610   -0.8085 H   0  0  0  0  0  0  0  0  0  0  0  0
    1.3671    1.3693    0.8841 H   0  0  0  0  0  0  0  0  0  0  0  0
   -0.0792    0.3471   -1.6365 H   0  0  0  0  0  0  0  0  0  0  0  0
   -0.8881    1.1435    1.2543 H   0  0  0  0  0  0  0  0  0  0  0  0
   -1.8689    1.8450   -1.3585 H   0  0  0  0  0  0  0  0  0  0  0  0
  1  2  1  0
  2  3  1  0
  3  4  2  0
  4  5  1  0
  5  6  1  0
  6  7  1  0
  7  8  1  0
  8  9  1  0
  8  2  1  0
  7  3  1  0
  1 10  1  0
  2 11  1  0
  4 12  1  0
  5 13  1  0
  5 14  1  0
  6 15  1  0
  6 16  1  0
  7 17  1  0
  8 18  1  0
  9 19  1  0
M  END
