
     RDKit          3D

 18 19  0  0  0  0  0  0  0  0999 V2000
    2.2696    0.3290    0.9585 O   0  0  0  0  0  0  0  0  0  0  0  0
    1.2960    0.1850    0.0139 C   0  0  0  0  0  0  0  0  0  0  0  0
    0.2046    1.2676    0.1272 C   0  0  0  0  0  0  0  0  0  0  0  0
   -1.0026    0.3847    0.0983 C   0  0  0  0  0  0  0  0  0  0  0  0
   -2.2268    0.8846    0.0705 O   0  0  0  0  0  0  0  0  0  0  0  0
   -0.6490   -0.6568    1.1577 C   0  0  0  0  0  0  0  0  0  0  0  0
    0.4394   -1.0267    0.1531 C   0  0  0  0  0  0  0  0  0  0  0  0
   -0.6388   -0.7230   -0.9006 C   0  0  0  0  0  0  0  0  0  0  0  0
    3.1083   -0.0941    0.5897 H   0  0  0  0  0  0  0  0  0  0  0  0
    1.6807    0.2127   -1.0325 H   0  0  0  0  0  0  0  0  0  0  0  0
    0.3621    1.7460    1.1155 H   0  0  0  0  0  0  0  0  0  0  0  0
    0.2684    1.9957   -0.6813 H   0  0  0  0  0  0  0  0  0  0  0  0
   -2.6325    1.0887    0.9277 H   0  0  0  0  0  0  0  0  0  0  0  0
   -1.4485   -1.4156    1.1805 H   0  0  0  0  0  0  0  0  0  0  0  0
   -0.2952   -0.2537    2.1021 H   0  0  0  0  0  0  0  0  0  0  0  0
    0.8438   -2.0005    0.1764 H   0  0  0  0  0  0  0  0  0  0  0  0
   -0.2268   -0.3771   -1.8449 H   0  0  0  0  0  0  0  0  0  0  0  0
   -1.3527   -1.5466   -0.9092 H   0  0  0  0  0  0  0  0  0  0  0  0
  1  2  1  0
  2  3  1  0
  3  4  1  0
  4  5  1  0
  4  6  1  0
  6  7  1  0
  7  8  1  0
  7  2  1  0
  8  4  1  0
  1  9  1  0
  2 10  1  0
  3 11  1  0
  3 12  1  0
  5 13  1  0
  6 14  1  0
  6 15  1  0
  7 16  1  0
  8 17  1  0
  8 18  1  0
M  END
