
     RDKit          3D

 21 22  0  0  0  0  0  0  0  0999 V2000
   -2.8767   -0.5146    0.1448 O   0  0  0  0  0  0  0  0  0  0  0  0
   -1.5636   -0.2818   -0.2637 C   0  0  0  0  0  0  0  0  0  0  0  0
   -1.2373    1.1866   -0.1502 C   0  0  0  0  0  0  0  0  0  0  0  0
    0.0096    0.7870    0.6329 C   0  0  0  0  0  0  0  0  0  0  0  0
    1.2226    0.9426   -0.2236 C   0  0  0  0  0  0  0  0  0  0  0  0
    2.2259   -0.1495   -0.0909 C   0  0  0  0  0  0  0  0  0  0  0  0
    1.7955   -1.2266    0.6628 O   0  0  0  0  0  0  0  0  0  0  0  0
    0.5119   -1.6386    0.3262 C   0  0  0  0  0  0  0  0  0  0  0  0
   -0.5012   -0.6100    0.7413 C   0  0  0  0  0  0  0  0  0  0  0  0
   -3.4686    0.0781   -0.3955 H   0  0  0  0  0  0  0  0  0  0  0  0
   -1.3814   -0.7071   -1.2710 H   0  0  0  0  0  0  0  0  0  0  0  0
   -1.0293    1.6174   -1.1524 H   0  0  0  0  0  0  0  0  0  0  0  0
   -1.9388    1.7985    0.4340 H   0  0  0  0  0  0  0  0  0  0  0  0
    0.0798    1.2494    1.6422 H   0  0  0  0  0  0  0  0  0  0  0  0
    0.9604    1.0995   -1.3032 H   0  0  0  0  0  0  0  0  0  0  0  0
    1.7251    1.8983    0.0870 H   0  0  0  0  0  0  0  0  0  0  0  0
    3.1864    0.2002    0.3864 H   0  0  0  0  0  0  0  0  0  0  0  0
    2.5401   -0.4981   -1.1109 H   0  0  0  0  0  0  0  0  0  0  0  0
    0.3249   -2.5756    0.9107 H   0  0  0  0  0  0  0  0  0  0  0  0
    0.3843   -1.8023   -0.7676 H   0  0  0  0  0  0  0  0  0  0  0  0
   -0.9697   -0.8535    1.7335 H   0  0  0  0  0  0  0  0  0  0  0  0
  1  2  1  0
  2  3  1  0
  3  4  1  0
  4  5  1  0
  5  6  1  0
  6  7  1  0
  7  8  1  0
  8  9  1  0
  9  2  1  0
  9  4  1  0
  1 10  1  0
  2 11  1  0
  3 12  1  0
  3 13  1  0
  4 14  1  0
  5 15  1  0
  5 16  1  0
  6 17  1  0
  6 18  1  0
  8 19  1  0
  8 20  1  0
  9 21  1  0
M  END
