
     RDKit          3D

 16 18  0  0  0  0  0  0  0  0999 V2000
    2.5715   -0.3305   -0.8280 O   0  0  0  0  0  0  0  0  0  0  0  0
    1.6747   -0.2511    0.2148 C   0  0  0  0  0  0  0  0  0  0  0  0
    0.9065    1.1047    0.3796 C   0  0  0  0  0  0  0  0  0  0  0  0
    0.2758   -0.0905    0.0048 C   0  0  0  0  0  0  0  0  0  0  0  0
   -0.4575   -0.3914   -1.1276 O   0  0  0  0  0  0  0  0  0  0  0  0
   -1.5048    0.1052   -0.3392 C   0  0  0  0  0  0  0  0  0  0  0  0
   -2.2334   -0.5453    0.6855 C   0  0  0  0  0  0  0  0  0  0  0  0
   -0.8159   -0.8447    0.7202 C   0  0  0  0  0  0  0  0  0  0  0  0
    3.0607    0.5230   -0.9337 H   0  0  0  0  0  0  0  0  0  0  0  0
    2.0182   -0.6979    1.1918 H   0  0  0  0  0  0  0  0  0  0  0  0
    0.8659    1.5026    1.4134 H   0  0  0  0  0  0  0  0  0  0  0  0
    1.2074    1.8622   -0.3680 H   0  0  0  0  0  0  0  0  0  0  0  0
   -1.2534    1.1977   -0.1396 H   0  0  0  0  0  0  0  0  0  0  0  0
   -2.6132    0.0495    1.5683 H   0  0  0  0  0  0  0  0  0  0  0  0
   -3.0432   -1.2737    0.3794 H   0  0  0  0  0  0  0  0  0  0  0  0
   -0.6594   -1.9198    0.3813 H   0  0  0  0  0  0  0  0  0  0  0  0
  1  2  1  0
  2  3  1  0
  3  4  1  0
  4  5  1  0
  5  6  1  0
  6  7  1  0
  7  8  1  0
  4  2  1  0
  8  6  1  0
  8  4  1  0
  1  9  1  0
  2 10  1  0
  3 11  1  0
  3 12  1  0
  6 13  1  0
  7 14  1  0
  7 15  1  0
  8 16  1  0
M  END
