
     RDKit          3D

 19 21  0  0  0  0  0  0  0  0999 V2000
    2.4958    0.3040    0.4430 O   0  0  0  0  0  0  0  0  0  0  0  0
    1.3218    0.2262   -0.3410 C   0  0  0  0  0  0  0  0  0  0  0  0
    0.4530    1.4179   -0.1200 C   0  0  0  0  0  0  0  0  0  0  0  0
   -0.9785    0.9695   -0.3195 C   0  0  0  0  0  0  0  0  0  0  0  0
   -1.3192    0.0661    0.8469 C   0  0  0  0  0  0  0  0  0  0  0  0
   -0.5944   -1.1783    0.5065 C   0  0  0  0  0  0  0  0  0  0  0  0
   -0.5861   -1.1216   -1.0198 C   0  0  0  0  0  0  0  0  0  0  0  0
   -1.0623    0.1041   -1.3882 O   0  0  0  0  0  0  0  0  0  0  0  0
    0.6542   -1.0883   -0.2119 C   0  0  0  0  0  0  0  0  0  0  0  0
    2.3452   -0.0562    1.3501 H   0  0  0  0  0  0  0  0  0  0  0  0
    1.7034    0.2972   -1.4036 H   0  0  0  0  0  0  0  0  0  0  0  0
    0.6646    2.2587   -0.8110 H   0  0  0  0  0  0  0  0  0  0  0  0
    0.6177    1.7655    0.9289 H   0  0  0  0  0  0  0  0  0  0  0  0
   -1.6984    1.7870   -0.3404 H   0  0  0  0  0  0  0  0  0  0  0  0
   -1.1081    0.5047    1.8170 H   0  0  0  0  0  0  0  0  0  0  0  0
   -2.4241   -0.1493    0.7437 H   0  0  0  0  0  0  0  0  0  0  0  0
   -0.8586   -2.1135    1.0043 H   0  0  0  0  0  0  0  0  0  0  0  0
   -0.9564   -2.0347   -1.4981 H   0  0  0  0  0  0  0  0  0  0  0  0
    1.3303   -1.9590   -0.1868 H   0  0  0  0  0  0  0  0  0  0  0  0
  1  2  1  0
  2  3  1  0
  3  4  1  0
  4  5  1  0
  5  6  1  0
  6  7  1  0
  7  8  1  0
  7  9  1  0
  9  2  1  0
  8  4  1  0
  9  6  1  0
  1 10  1  0
  2 11  1  0
  3 12  1  0
  3 13  1  0
  4 14  1  0
  5 15  1  0
  5 16  1  0
  6 17  1  0
  7 18  1  0
  9 19  1  0
M  END
