
     RDKit          3D

 19 21  0  0  0  0  0  0  0  0999 V2000
    2.8092   -0.8082    1.1104 O   0  0  0  0  0  0  0  0  0  0  0  0
    1.6493   -0.9284    0.3728 C   0  0  0  0  0  0  0  0  0  0  0  0
    1.3356    0.1499   -0.5828 C   0  0  0  0  0  0  0  0  0  0  0  0
    0.0598   -0.0600   -1.3888 C   0  0  0  0  0  0  0  0  0  0  0  0
   -0.6866    0.1272   -0.1074 C   0  0  0  0  0  0  0  0  0  0  0  0
   -1.9135   -0.6414    0.1184 C   0  0  0  0  0  0  0  0  0  0  0  0
   -2.5612    0.5488    0.5096 O   0  0  0  0  0  0  0  0  0  0  0  0
   -1.4907    1.3560    0.0568 C   0  0  0  0  0  0  0  0  0  0  0  0
    0.5051   -0.0777    0.7283 C   0  0  0  0  0  0  0  0  0  0  0  0
    3.5689   -0.4958    0.5665 H   0  0  0  0  0  0  0  0  0  0  0  0
    1.4713   -1.9660   -0.0144 H   0  0  0  0  0  0  0  0  0  0  0  0
    1.8710    1.0960   -0.6416 H   0  0  0  0  0  0  0  0  0  0  0  0
   -0.1593    0.6942   -2.1408 H   0  0  0  0  0  0  0  0  0  0  0  0
   -0.0317   -1.1289   -1.7164 H   0  0  0  0  0  0  0  0  0  0  0  0
   -2.3713   -0.9744   -0.8539 H   0  0  0  0  0  0  0  0  0  0  0  0
   -1.9295   -1.4462    0.8571 H   0  0  0  0  0  0  0  0  0  0  0  0
   -1.1011    2.0390    0.8254 H   0  0  0  0  0  0  0  0  0  0  0  0
   -1.7024    1.8366   -0.9191 H   0  0  0  0  0  0  0  0  0  0  0  0
    0.6771    0.6793    1.5298 H   0  0  0  0  0  0  0  0  0  0  0  0
  1  2  1  0
  2  3  1  0
  3  4  1  0
  4  5  1  0
  5  6  1  0
  6  7  1  0
  7  8  1  0
  5  9  1  0
  9  2  1  0
  9  3  1  0
  8  5  1  0
  1 10  1  0
  2 11  1  0
  3 12  1  0
  4 13  1  0
  4 14  1  0
  6 15  1  0
  6 16  1  0
  8 17  1  0
  8 18  1  0
  9 19  1  0
M  END
