
     RDKit          3D

 19 21  0  0  0  0  0  0  0  0999 V2000
    1.7113    1.1573   -0.5148 O   0  0  0  0  0  0  0  0  0  0  0  0
    1.9070   -0.1202   -0.0060 C   0  0  0  0  0  0  0  0  0  0  0  0
    1.5697   -1.3103   -0.8741 C   0  0  0  0  0  0  0  0  0  0  0  0
    0.7953   -1.0078    0.3484 C   0  0  0  0  0  0  0  0  0  0  0  0
   -0.6318   -0.5475    0.2636 C   0  0  0  0  0  0  0  0  0  0  0  0
   -0.9853    0.5304    1.0370 O   0  0  0  0  0  0  0  0  0  0  0  0
   -1.5293    1.2410   -0.0058 C   0  0  0  0  0  0  0  0  0  0  0  0
   -2.4546    0.6385   -0.9899 C   0  0  0  0  0  0  0  0  0  0  0  0
   -1.0161    0.2344   -0.9458 C   0  0  0  0  0  0  0  0  0  0  0  0
    2.3549    1.8164   -0.1489 H   0  0  0  0  0  0  0  0  0  0  0  0
    2.8871   -0.2200    0.5319 H   0  0  0  0  0  0  0  0  0  0  0  0
    1.1990   -1.0435   -1.8891 H   0  0  0  0  0  0  0  0  0  0  0  0
    2.2250   -2.1954   -0.8831 H   0  0  0  0  0  0  0  0  0  0  0  0
    0.9803   -1.6943    1.2105 H   0  0  0  0  0  0  0  0  0  0  0  0
   -1.3478   -1.3858    0.4441 H   0  0  0  0  0  0  0  0  0  0  0  0
   -1.3056    2.3019   -0.0481 H   0  0  0  0  0  0  0  0  0  0  0  0
   -2.8191    1.2914   -1.7810 H   0  0  0  0  0  0  0  0  0  0  0  0
   -3.2092   -0.1286   -0.6570 H   0  0  0  0  0  0  0  0  0  0  0  0
   -0.3307    0.4421   -1.7596 H   0  0  0  0  0  0  0  0  0  0  0  0
  1  2  1  0
  2  3  1  0
  3  4  1  0
  4  5  1  0
  5  6  1  0
  6  7  1  0
  7  8  1  0
  8  9  1  0
  4  2  1  0
  9  5  1  0
  9  7  1  0
  1 10  1  0
  2 11  1  0
  3 12  1  0
  3 13  1  0
  4 14  1  0
  5 15  1  0
  7 16  1  0
  8 17  1  0
  8 18  1  0
  9 19  1  0
M  END
