
     RDKit          3D

 17 19  0  0  0  0  0  0  0  0999 V2000
   -2.3954    0.5941   -0.1996 O   0  0  0  0  0  0  0  0  0  0  0  0
   -1.1391    0.4667    0.3197 C   0  0  0  0  0  0  0  0  0  0  0  0
   -0.7276   -0.9660    0.5870 C   0  0  0  0  0  0  0  0  0  0  0  0
    0.7023   -0.7342    1.0735 C   0  0  0  0  0  0  0  0  0  0  0  0
    1.1917    0.0273   -0.1369 C   0  0  0  0  0  0  0  0  0  0  0  0
    2.3471    0.7004   -0.1653 O   0  0  0  0  0  0  0  0  0  0  0  0
    0.3817   -0.4491   -1.2310 C   0  0  0  0  0  0  0  0  0  0  0  0
   -0.4951   -1.4207   -0.6990 O   0  0  0  0  0  0  0  0  0  0  0  0
   -0.0347    0.8100   -0.6603 C   0  0  0  0  0  0  0  0  0  0  0  0
   -2.4317    0.4258   -1.1536 H   0  0  0  0  0  0  0  0  0  0  0  0
   -0.9469    1.0691    1.2304 H   0  0  0  0  0  0  0  0  0  0  0  0
   -1.3475   -1.5373    1.2194 H   0  0  0  0  0  0  0  0  0  0  0  0
    0.7450   -0.1693    2.0030 H   0  0  0  0  0  0  0  0  0  0  0  0
    1.1792   -1.7259    1.0990 H   0  0  0  0  0  0  0  0  0  0  0  0
    2.1653    1.6741    0.0364 H   0  0  0  0  0  0  0  0  0  0  0  0
    0.7049   -0.5676   -2.2781 H   0  0  0  0  0  0  0  0  0  0  0  0
    0.1008    1.8029   -1.0446 H   0  0  0  0  0  0  0  0  0  0  0  0
  1  2  1  0
  2  3  1  0
  3  4  1  0
  4  5  1  0
  5  6  1  0
  5  7  1  0
  7  8  1  0
  7  9  1  0
  9  2  1  0
  8  3  1  0
  9  5  1  0
  1 10  1  0
  2 11  1  0
  3 12  1  0
  4 13  1  0
  4 14  1  0
  6 15  1  0
  7 16  1  0
  9 17  1  0
M  END
