
     RDKit          3D

 19 21  0  0  0  0  0  0  0  0999 V2000
    2.2491    0.1753   -1.0428 O   0  0  0  0  0  0  0  0  0  0  0  0
    1.3846    0.0030    0.0064 C   0  0  0  0  0  0  0  0  0  0  0  0
    0.5884   -1.2773   -0.0591 C   0  0  0  0  0  0  0  0  0  0  0  0
   -0.7071   -0.9590    0.6397 C   0  0  0  0  0  0  0  0  0  0  0  0
   -1.7237   -1.0271   -0.3266 O   0  0  0  0  0  0  0  0  0  0  0  0
   -1.4905    0.0504   -1.1675 C   0  0  0  0  0  0  0  0  0  0  0  0
   -0.9274    1.1642   -0.3211 C   0  0  0  0  0  0  0  0  0  0  0  0
    0.4241    1.1215    0.2260 C   0  0  0  0  0  0  0  0  0  0  0  0
   -0.6850    0.4977    0.9897 C   0  0  0  0  0  0  0  0  0  0  0  0
    3.1708    0.3902   -0.7475 H   0  0  0  0  0  0  0  0  0  0  0  0
    2.0156   -0.0776    0.9400 H   0  0  0  0  0  0  0  0  0  0  0  0
    1.1139   -2.1057    0.4628 H   0  0  0  0  0  0  0  0  0  0  0  0
    0.4466   -1.5700   -1.1052 H   0  0  0  0  0  0  0  0  0  0  0  0
   -0.8811   -1.6353    1.4694 H   0  0  0  0  0  0  0  0  0  0  0  0
   -0.8555   -0.2008   -2.0383 H   0  0  0  0  0  0  0  0  0  0  0  0
   -2.4858    0.3697   -1.5745 H   0  0  0  0  0  0  0  0  0  0  0  0
   -1.4273    2.1373   -0.4007 H   0  0  0  0  0  0  0  0  0  0  0  0
    0.8513    2.0641    0.5977 H   0  0  0  0  0  0  0  0  0  0  0  0
   -1.0611    0.8793    1.9323 H   0  0  0  0  0  0  0  0  0  0  0  0
  1  2  1  0
  2  3  1  0
  3  4  1  0
  4  5  1  0
  5  6  1  0
  6  7  1  0
  7  8  1  0
  8  9  1  0
  8  2  1  0
  9  4  1  0
  9  7  1  0
  1 10  1  0
  2 11  1  0
  3 12  1  0
  3 13  1  0
  4 14  1  0
  6 15  1  0
  6 16  1  0
  7 17  1  0
  8 18  1  0
  9 19  1  0
M  END
