
     RDKit          3D

 17 19  0  0  0  0  0  0  0  0999 V2000
   -0.2693    1.6825   -1.0585 O   0  0  0  0  0  0  0  0  0  0  0  0
   -0.1357    0.8328    0.0103 C   0  0  0  0  0  0  0  0  0  0  0  0
    1.0790   -0.0496   -0.0346 C   0  0  0  0  0  0  0  0  0  0  0  0
    2.3428    0.2701    0.3387 C   0  0  0  0  0  0  0  0  0  0  0  0
    1.9670    0.0073   -1.0770 O   0  0  0  0  0  0  0  0  0  0  0  0
    0.2154   -1.2266    0.2263 C   0  0  0  0  0  0  0  0  0  0  0  0
   -0.9747   -0.4091   -0.0838 C   0  0  0  0  0  0  0  0  0  0  0  0
   -2.2860   -0.4933    0.2459 C   0  0  0  0  0  0  0  0  0  0  0  0
   -1.7966   -0.6401   -1.1510 O   0  0  0  0  0  0  0  0  0  0  0  0
   -0.4988    2.6087   -0.7481 H   0  0  0  0  0  0  0  0  0  0  0  0
   -0.2554    1.3087    1.0226 H   0  0  0  0  0  0  0  0  0  0  0  0
    3.1016   -0.4672    0.7087 H   0  0  0  0  0  0  0  0  0  0  0  0
    2.7012    1.3130    0.4586 H   0  0  0  0  0  0  0  0  0  0  0  0
    0.2321   -1.6106    1.2842 H   0  0  0  0  0  0  0  0  0  0  0  0
    0.3294   -2.0694   -0.5021 H   0  0  0  0  0  0  0  0  0  0  0  0
   -2.9586    0.3817    0.3538 H   0  0  0  0  0  0  0  0  0  0  0  0
   -2.7934   -1.4388    0.5902 H   0  0  0  0  0  0  0  0  0  0  0  0
  1  2  1  0
  2  3  1  0
  3  4  1  0
  4  5  1  0
  3  6  1  0
  6  7  1  0
  7  8  1  0
  8  9  1  0
  7  2  1  0
  5  3  1  0
  9  7  1  0
  1 10  1  0
  2 11  1  0
  4 12  1  0
  4 13  1  0
  6 14  1  0
  6 15  1  0
  8 16  1  0
  8 17  1  0
M  END
