
     RDKit          3D

 16 16  0  0  0  0  0  0  0  0999 V2000
    2.3065    0.0356    0.1086 O   0  0  0  0  0  0  0  0  0  0  0  0
    1.0138    0.0054   -0.3432 C   0  0  0  0  0  0  0  0  0  0  0  0
    0.1946   -1.1220    0.2854 C   0  0  0  0  0  0  0  0  0  0  0  0
   -1.2138   -0.7015   -0.1344 C   0  0  0  0  0  0  0  0  0  0  0  0
   -1.1804    0.8115   -0.1301 C   0  0  0  0  0  0  0  0  0  0  0  0
    0.2355    1.2203    0.1710 C   0  0  0  0  0  0  0  0  0  0  0  0
    2.6798   -0.8220    0.3930 H   0  0  0  0  0  0  0  0  0  0  0  0
    0.9432   -0.0450   -1.4586 H   0  0  0  0  0  0  0  0  0  0  0  0
    0.2686   -0.9926    1.3727 H   0  0  0  0  0  0  0  0  0  0  0  0
    0.4723   -2.1061   -0.0908 H   0  0  0  0  0  0  0  0  0  0  0  0
   -1.3531   -1.0560   -1.1905 H   0  0  0  0  0  0  0  0  0  0  0  0
   -1.9862   -1.1134    0.5353 H   0  0  0  0  0  0  0  0  0  0  0  0
   -1.8760    1.2359    0.6298 H   0  0  0  0  0  0  0  0  0  0  0  0
   -1.4966    1.2450   -1.1029 H   0  0  0  0  0  0  0  0  0  0  0  0
    0.4428    1.2548    1.2720 H   0  0  0  0  0  0  0  0  0  0  0  0
    0.5488    2.1499   -0.3174 H   0  0  0  0  0  0  0  0  0  0  0  0
  1  2  1  0
  2  3  1  0
  3  4  1  0
  4  5  1  0
  5  6  1  0
  6  2  1  0
  1  7  1  0
  2  8  1  0
  3  9  1  0
  3 10  1  0
  4 11  1  0
  4 12  1  0
  5 13  1  0
  5 14  1  0
  6 15  1  0
  6 16  1  0
M  END
