
     RDKit          3D

 19 20  0  0  0  0  0  0  0  0999 V2000
   -2.0312   -0.0331   -0.9797 O   0  0  0  0  0  0  0  0  0  0  0  0
   -1.4988    0.3024    0.2489 C   0  0  0  0  0  0  0  0  0  0  0  0
   -0.2315    1.1655    0.1702 C   0  0  0  0  0  0  0  0  0  0  0  0
   -0.0271    1.7888    1.4075 O   0  0  0  0  0  0  0  0  0  0  0  0
    0.5311   -0.1058    0.0579 C   0  0  0  0  0  0  0  0  0  0  0  0
    1.9348   -0.2903    0.2667 C   0  0  0  0  0  0  0  0  0  0  0  0
    1.2686   -0.5380   -1.1077 C   0  0  0  0  0  0  0  0  0  0  0  0
   -0.5759   -0.8347    0.7132 C   0  0  0  0  0  0  0  0  0  0  0  0
   -0.9293   -2.0690    0.2025 O   0  0  0  0  0  0  0  0  0  0  0  0
   -1.8955    0.6426   -1.6784 H   0  0  0  0  0  0  0  0  0  0  0  0
   -2.1864    0.5645    1.0498 H   0  0  0  0  0  0  0  0  0  0  0  0
   -0.2005    1.8610   -0.6693 H   0  0  0  0  0  0  0  0  0  0  0  0
   -0.5394    2.6327    1.4951 H   0  0  0  0  0  0  0  0  0  0  0  0
    2.2689   -1.2193    0.8133 H   0  0  0  0  0  0  0  0  0  0  0  0
    2.6963    0.4931    0.2859 H   0  0  0  0  0  0  0  0  0  0  0  0
    1.5040    0.2367   -1.8839 H   0  0  0  0  0  0  0  0  0  0  0  0
    1.1622   -1.5805   -1.4402 H   0  0  0  0  0  0  0  0  0  0  0  0
   -0.4834   -0.8669    1.8185 H   0  0  0  0  0  0  0  0  0  0  0  0
   -0.7668   -2.1496   -0.7703 H   0  0  0  0  0  0  0  0  0  0  0  0
  1  2  1  0
  2  3  1  0
  3  4  1  0
  3  5  1  0
  5  6  1  0
  6  7  1  0
  5  8  1  0
  8  9  1  0
  8  2  1  0
  7  5  1  0
  1 10  1  0
  2 11  1  0
  3 12  1  0
  4 13  1  0
  6 14  1  0
  6 15  1  0
  7 16  1  0
  7 17  1  0
  8 18  1  0
  9 19  1  0
M  END
