
     RDKit          3D

 19 20  0  0  0  0  0  0  0  0999 V2000
   -2.3891   -1.0984    0.0804 O   0  0  0  0  0  0  0  0  0  0  0  0
   -1.1881   -0.4480    0.2016 C   0  0  0  0  0  0  0  0  0  0  0  0
   -0.0762   -1.0764   -0.6237 C   0  0  0  0  0  0  0  0  0  0  0  0
    1.1625   -1.0439    0.2214 C   0  0  0  0  0  0  0  0  0  0  0  0
    1.6280    0.3848    0.3961 C   0  0  0  0  0  0  0  0  0  0  0  0
    0.6663    1.1997    0.9376 O   0  0  0  0  0  0  0  0  0  0  0  0
   -0.1780    1.7821    0.0069 C   0  0  0  0  0  0  0  0  0  0  0  0
   -0.9382    0.7032   -0.7297 C   0  0  0  0  0  0  0  0  0  0  0  0
   -0.0553   -0.0062   -1.5068 O   0  0  0  0  0  0  0  0  0  0  0  0
   -2.2514   -2.0349    0.4062 H   0  0  0  0  0  0  0  0  0  0  0  0
   -0.9343   -0.2461    1.2484 H   0  0  0  0  0  0  0  0  0  0  0  0
   -0.3322   -2.0457   -1.0900 H   0  0  0  0  0  0  0  0  0  0  0  0
    1.9772   -1.6683   -0.1277 H   0  0  0  0  0  0  0  0  0  0  0  0
    0.8726   -1.4134    1.2365 H   0  0  0  0  0  0  0  0  0  0  0  0
    2.4766    0.3455    1.1367 H   0  0  0  0  0  0  0  0  0  0  0  0
    2.0827    0.7854   -0.5342 H   0  0  0  0  0  0  0  0  0  0  0  0
   -0.9454    2.3524    0.5945 H   0  0  0  0  0  0  0  0  0  0  0  0
    0.3082    2.5081   -0.6533 H   0  0  0  0  0  0  0  0  0  0  0  0
   -1.8860    1.0202   -1.2008 H   0  0  0  0  0  0  0  0  0  0  0  0
  1  2  1  0
  2  3  1  0
  3  4  1  0
  4  5  1  0
  5  6  1  0
  6  7  1  0
  7  8  1  0
  8  9  1  0
  8  2  1  0
  9  3  1  0
  1 10  1  0
  2 11  1  0
  3 12  1  0
  4 13  1  0
  4 14  1  0
  5 15  1  0
  5 16  1  0
  7 17  1  0
  7 18  1  0
  8 19  1  0
M  END
