
     RDKit          3D

 19 21  0  0  0  0  0  0  0  0999 V2000
    2.1438    0.6142    1.5911 O   0  0  0  0  0  0  0  0  0  0  0  0
    1.4611    0.6465    0.4217 C   0  0  0  0  0  0  0  0  0  0  0  0
    1.4644   -0.8094   -0.1750 C   0  0  0  0  0  0  0  0  0  0  0  0
    0.0135   -1.0741   -0.2181 C   0  0  0  0  0  0  0  0  0  0  0  0
   -1.2145   -1.4729   -0.2389 C   0  0  0  0  0  0  0  0  0  0  0  0
   -2.1804   -0.3015   -0.3640 C   0  0  0  0  0  0  0  0  0  0  0  0
   -1.2503    0.9177   -0.0869 C   0  0  0  0  0  0  0  0  0  0  0  0
   -0.2224    0.3893   -0.7973 C   0  0  0  0  0  0  0  0  0  0  0  0
   -0.0006    0.9234    0.6327 C   0  0  0  0  0  0  0  0  0  0  0  0
    2.6976    1.3740    1.8158 H   0  0  0  0  0  0  0  0  0  0  0  0
    1.9129    1.3260   -0.3222 H   0  0  0  0  0  0  0  0  0  0  0  0
    1.8533   -0.8010   -1.1945 H   0  0  0  0  0  0  0  0  0  0  0  0
    2.0102   -1.4750    0.5093 H   0  0  0  0  0  0  0  0  0  0  0  0
   -1.4758   -2.5305   -0.1705 H   0  0  0  0  0  0  0  0  0  0  0  0
   -2.5748   -0.2687   -1.3743 H   0  0  0  0  0  0  0  0  0  0  0  0
   -2.9097   -0.3504    0.4455 H   0  0  0  0  0  0  0  0  0  0  0  0
   -1.7900    1.8432   -0.3901 H   0  0  0  0  0  0  0  0  0  0  0  0
    0.2966    0.7006   -1.6372 H   0  0  0  0  0  0  0  0  0  0  0  0
   -0.2349    0.3486    1.5527 H   0  0  0  0  0  0  0  0  0  0  0  0
  1  2  1  0
  2  3  1  0
  3  4  1  0
  4  5  2  0
  5  6  1  0
  6  7  1  0
  7  8  1  0
  8  9  1  0
  9  2  1  0
  8  4  1  0
  9  7  1  0
  1 10  1  0
  2 11  1  0
  3 12  1  0
  3 13  1  0
  5 14  1  0
  6 15  1  0
  6 16  1  0
  7 17  1  0
  8 18  1  0
  9 19  1  0
M  END
