
     RDKit          3D

 17 19  0  0  0  0  0  0  0  0999 V2000
    2.6556   -0.0822    0.4088 O   0  0  0  0  0  0  0  0  0  0  0  0
    1.3867    0.0041   -0.1365 C   0  0  0  0  0  0  0  0  0  0  0  0
    0.5024   -1.1837    0.0480 C   0  0  0  0  0  0  0  0  0  0  0  0
    0.3046   -0.7574    1.3657 O   0  0  0  0  0  0  0  0  0  0  0  0
    0.4068    0.5499    0.8463 C   0  0  0  0  0  0  0  0  0  0  0  0
   -0.8682    0.6660    0.0466 C   0  0  0  0  0  0  0  0  0  0  0  0
   -1.0177    1.6791   -0.8803 O   0  0  0  0  0  0  0  0  0  0  0  0
   -1.9497   -0.3405    0.2014 C   0  0  0  0  0  0  0  0  0  0  0  0
   -0.7893   -0.7550   -0.6154 C   0  0  0  0  0  0  0  0  0  0  0  0
    3.3775   -0.0764   -0.2813 H   0  0  0  0  0  0  0  0  0  0  0  0
    1.3272    0.4180   -1.1529 H   0  0  0  0  0  0  0  0  0  0  0  0
    0.8694   -2.1683   -0.1231 H   0  0  0  0  0  0  0  0  0  0  0  0
    0.6796    1.3317    1.5144 H   0  0  0  0  0  0  0  0  0  0  0  0
   -1.0124    2.5537   -0.4699 H   0  0  0  0  0  0  0  0  0  0  0  0
   -2.0904   -0.8878    1.1549 H   0  0  0  0  0  0  0  0  0  0  0  0
   -2.8779   -0.1418   -0.3335 H   0  0  0  0  0  0  0  0  0  0  0  0
   -0.9044   -0.8093   -1.6923 H   0  0  0  0  0  0  0  0  0  0  0  0
  1  2  1  0
  2  3  1  0
  3  4  1  0
  4  5  1  0
  5  6  1  0
  6  7  1  0
  6  8  1  0
  8  9  1  0
  5  2  1  0
  9  6  1  0
  9  3  1  0
  1 10  1  0
  2 11  1  0
  3 12  1  0
  5 13  1  0
  7 14  1  0
  8 15  1  0
  8 16  1  0
  9 17  1  0
M  END
