
     RDKit          3D

 23 24  0  0  0  0  0  0  0  0999 V2000
   -2.3198    1.6707    0.5725 O   0  0  0  0  0  0  0  0  0  0  0  0
   -1.5051    0.7516   -0.0815 C   0  0  0  0  0  0  0  0  0  0  0  0
   -1.8133   -0.6162    0.5066 C   0  0  0  0  0  0  0  0  0  0  0  0
   -0.9656   -1.5930   -0.2929 C   0  0  0  0  0  0  0  0  0  0  0  0
    0.4711   -1.3322   -0.0793 C   0  0  0  0  0  0  0  0  0  0  0  0
    0.9183    0.0630   -0.0881 C   0  0  0  0  0  0  0  0  0  0  0  0
    2.2592    0.3082    0.6576 C   0  0  0  0  0  0  0  0  0  0  0  0
    2.2259    0.4413   -0.8172 C   0  0  0  0  0  0  0  0  0  0  0  0
   -0.0814    1.1252    0.0208 C   0  0  0  0  0  0  0  0  0  0  0  0
   -2.4783    2.4610   -0.0157 H   0  0  0  0  0  0  0  0  0  0  0  0
   -1.8363    0.7066   -1.1467 H   0  0  0  0  0  0  0  0  0  0  0  0
   -2.8857   -0.8344    0.3248 H   0  0  0  0  0  0  0  0  0  0  0  0
   -1.5436   -0.6429    1.5826 H   0  0  0  0  0  0  0  0  0  0  0  0
   -1.1987   -2.6084    0.1418 H   0  0  0  0  0  0  0  0  0  0  0  0
   -1.2981   -1.5443   -1.3389 H   0  0  0  0  0  0  0  0  0  0  0  0
    1.0781   -1.9077   -0.8351 H   0  0  0  0  0  0  0  0  0  0  0  0
    0.7650   -1.7979    0.9055 H   0  0  0  0  0  0  0  0  0  0  0  0
    2.2667    1.1950    1.3291 H   0  0  0  0  0  0  0  0  0  0  0  0
    2.7720   -0.5579    1.0761 H   0  0  0  0  0  0  0  0  0  0  0  0
    2.7109   -0.3264   -1.4337 H   0  0  0  0  0  0  0  0  0  0  0  0
    2.2695    1.4513   -1.2425 H   0  0  0  0  0  0  0  0  0  0  0  0
    0.1238    1.9240   -0.7488 H   0  0  0  0  0  0  0  0  0  0  0  0
    0.0654    1.6634    1.0028 H   0  0  0  0  0  0  0  0  0  0  0  0
  1  2  1  0
  2  3  1  0
  3  4  1  0
  4  5  1  0
  5  6  1  0
  6  7  1  0
  7  8  1  0
  6  9  1  0
  9  2  1  0
  8  6  1  0
  1 10  1  0
  2 11  1  0
  3 12  1  0
  3 13  1  0
  4 14  1  0
  4 15  1  0
  5 16  1  0
  5 17  1  0
  7 18  1  0
  7 19  1  0
  8 20  1  0
  8 21  1  0
  9 22  1  0
  9 23  1  0
M  END
