
     RDKit          3D

 17 19  0  0  0  0  0  0  0  0999 V2000
   -1.7778    0.4284    1.3362 O   0  0  0  0  0  0  0  0  0  0  0  0
   -1.7918    0.3349   -0.0488 C   0  0  0  0  0  0  0  0  0  0  0  0
   -1.1015   -0.7891   -0.6525 C   0  0  0  0  0  0  0  0  0  0  0  0
    0.0505   -1.4521   -0.0414 C   0  0  0  0  0  0  0  0  0  0  0  0
    1.1040   -0.7165    0.1354 C   0  0  0  0  0  0  0  0  0  0  0  0
    2.4230   -0.0147    0.4168 C   0  0  0  0  0  0  0  0  0  0  0  0
    1.9341    0.8922   -0.6259 O   0  0  0  0  0  0  0  0  0  0  0  0
    0.7079    0.7434   -0.0808 C   0  0  0  0  0  0  0  0  0  0  0  0
   -0.5493    0.6557   -0.8262 C   0  0  0  0  0  0  0  0  0  0  0  0
   -2.6717    0.6788    1.6797 H   0  0  0  0  0  0  0  0  0  0  0  0
   -2.7231    0.6898   -0.5296 H   0  0  0  0  0  0  0  0  0  0  0  0
   -1.4823   -1.2243   -1.6464 H   0  0  0  0  0  0  0  0  0  0  0  0
    0.0681   -2.5282    0.2713 H   0  0  0  0  0  0  0  0  0  0  0  0
    2.4529    0.4813    1.3804 H   0  0  0  0  0  0  0  0  0  0  0  0
    3.3004   -0.5683    0.0819 H   0  0  0  0  0  0  0  0  0  0  0  0
    0.6684    1.2854    0.9074 H   0  0  0  0  0  0  0  0  0  0  0  0
   -0.6120    1.1035   -1.8154 H   0  0  0  0  0  0  0  0  0  0  0  0
  1  2  1  0
  2  3  1  0
  3  4  1  0
  4  5  2  0
  5  6  1  0
  6  7  1  0
  7  8  1  0
  8  9  1  0
  9  2  1  0
  9  3  1  0
  8  5  1  0
  1 10  1  0
  2 11  1  0
  3 12  1  0
  4 13  1  0
  6 14  1  0
  6 15  1  0
  8 16  1  0
  9 17  1  0
M  END
