
     RDKit          3D

 21 23  0  0  0  0  0  0  0  0999 V2000
    2.9253    0.1502    0.7752 O   0  0  0  0  0  0  0  0  0  0  0  0
    1.8768   -0.5688    0.3838 C   0  0  0  0  0  0  0  0  0  0  0  0
    0.5250   -0.3157    1.0053 C   0  0  0  0  0  0  0  0  0  0  0  0
    0.0454   -1.1106   -0.1791 C   0  0  0  0  0  0  0  0  0  0  0  0
   -1.3750   -0.9733   -0.5142 C   0  0  0  0  0  0  0  0  0  0  0  0
   -1.9692    0.2871    0.0841 C   0  0  0  0  0  0  0  0  0  0  0  0
   -0.9435    1.3712   -0.1582 C   0  0  0  0  0  0  0  0  0  0  0  0
    0.4395    0.8978    0.1522 C   0  0  0  0  0  0  0  0  0  0  0  0
    1.0261   -0.1278   -0.7640 C   0  0  0  0  0  0  0  0  0  0  0  0
    3.0012    1.0820    0.5097 H   0  0  0  0  0  0  0  0  0  0  0  0
    2.0713   -1.6493    0.3344 H   0  0  0  0  0  0  0  0  0  0  0  0
    0.2730   -0.4446    1.9637 H   0  0  0  0  0  0  0  0  0  0  0  0
    0.4741   -2.1245   -0.2028 H   0  0  0  0  0  0  0  0  0  0  0  0
   -1.4778   -0.8658   -1.6306 H   0  0  0  0  0  0  0  0  0  0  0  0
   -1.9212   -1.8808   -0.2420 H   0  0  0  0  0  0  0  0  0  0  0  0
   -2.9044    0.5013   -0.4753 H   0  0  0  0  0  0  0  0  0  0  0  0
   -2.2387    0.1673    1.1427 H   0  0  0  0  0  0  0  0  0  0  0  0
   -1.2094    2.2751    0.3770 H   0  0  0  0  0  0  0  0  0  0  0  0
   -0.9792    1.6044   -1.2568 H   0  0  0  0  0  0  0  0  0  0  0  0
    1.0780    1.7569    0.4210 H   0  0  0  0  0  0  0  0  0  0  0  0
    1.2826   -0.0322   -1.7260 H   0  0  0  0  0  0  0  0  0  0  0  0
  1  2  1  0
  2  3  1  0
  3  4  1  0
  4  5  1  0
  5  6  1  0
  6  7  1  0
  7  8  1  0
  8  9  1  0
  9  2  1  0
  8  3  1  0
  9  4  1  0
  1 10  1  0
  2 11  1  0
  3 12  1  0
  4 13  1  0
  5 14  1  0
  5 15  1  0
  6 16  1  0
  6 17  1  0
  7 18  1  0
  7 19  1  0
  8 20  1  0
  9 21  1  0
M  END
