
     RDKit          3D

 21 23  0  0  0  0  0  0  0  0999 V2000
   -0.5515    1.3594   -1.7947 O   0  0  0  0  0  0  0  0  0  0  0  0
   -0.8054    0.1057   -1.2676 C   0  0  0  0  0  0  0  0  0  0  0  0
   -2.1935    0.1220   -0.6130 C   0  0  0  0  0  0  0  0  0  0  0  0
   -1.4749    0.0771    0.7230 C   0  0  0  0  0  0  0  0  0  0  0  0
   -0.7563   -1.1823    0.9954 C   0  0  0  0  0  0  0  0  0  0  0  0
   -0.2011   -0.1976    0.0610 C   0  0  0  0  0  0  0  0  0  0  0  0
    1.0836    0.4804    0.4544 C   0  0  0  0  0  0  0  0  0  0  0  0
    2.3122    0.3257   -0.3219 C   0  0  0  0  0  0  0  0  0  0  0  0
    2.1831   -0.5083    0.9041 C   0  0  0  0  0  0  0  0  0  0  0  0
   -1.3011    1.9810   -1.7284 H   0  0  0  0  0  0  0  0  0  0  0  0
   -0.6733   -0.6644   -2.0336 H   0  0  0  0  0  0  0  0  0  0  0  0
   -2.6824   -0.8548   -0.8348 H   0  0  0  0  0  0  0  0  0  0  0  0
   -2.7831    1.0174   -0.8024 H   0  0  0  0  0  0  0  0  0  0  0  0
   -1.6412    0.8531    1.4678 H   0  0  0  0  0  0  0  0  0  0  0  0
   -1.2822   -2.1124    0.6332 H   0  0  0  0  0  0  0  0  0  0  0  0
   -0.2826   -1.2850    1.9655 H   0  0  0  0  0  0  0  0  0  0  0  0
    0.9361    1.3317    1.1490 H   0  0  0  0  0  0  0  0  0  0  0  0
    3.0832    1.1299   -0.2485 H   0  0  0  0  0  0  0  0  0  0  0  0
    2.2907   -0.1592   -1.3159 H   0  0  0  0  0  0  0  0  0  0  0  0
    1.9910   -1.5777    0.7903 H   0  0  0  0  0  0  0  0  0  0  0  0
    2.7486   -0.2419    1.8170 H   0  0  0  0  0  0  0  0  0  0  0  0
  1  2  1  0
  2  3  1  0
  3  4  1  0
  4  5  1  0
  5  6  1  0
  6  7  1  0
  7  8  1  0
  8  9  1  0
  6  2  1  0
  9  7  1  0
  6  4  1  0
  1 10  1  0
  2 11  1  0
  3 12  1  0
  3 13  1  0
  4 14  1  0
  5 15  1  0
  5 16  1  0
  7 17  1  0
  8 18  1  0
  8 19  1  0
  9 20  1  0
  9 21  1  0
M  END
