
     RDKit          3D

 17 18  0  0  0  0  0  0  0  0999 V2000
    1.8935   -0.8344   -0.7953 O   0  0  0  0  0  0  0  0  0  0  0  0
    0.8983    0.1025   -0.8895 C   0  0  0  0  0  0  0  0  0  0  0  0
   -0.4818   -0.5516   -1.0652 C   0  0  0  0  0  0  0  0  0  0  0  0
   -1.3922    0.4683   -1.0465 O   0  0  0  0  0  0  0  0  0  0  0  0
   -0.8533    1.3439   -0.0684 C   0  0  0  0  0  0  0  0  0  0  0  0
    0.2684    0.4993    0.4569 C   0  0  0  0  0  0  0  0  0  0  0  0
    1.0498    0.8982    1.4357 O   0  0  0  0  0  0  0  0  0  0  0  0
   -0.3286   -0.8791    0.4291 C   0  0  0  0  0  0  0  0  0  0  0  0
   -1.5056   -1.0592    1.1042 O   0  0  0  0  0  0  0  0  0  0  0  0
    2.5568   -0.5018   -0.1249 H   0  0  0  0  0  0  0  0  0  0  0  0
    1.0577    0.9725   -1.5245 H   0  0  0  0  0  0  0  0  0  0  0  0
   -0.5558   -1.3633   -1.7372 H   0  0  0  0  0  0  0  0  0  0  0  0
   -0.3887    2.1753   -0.6540 H   0  0  0  0  0  0  0  0  0  0  0  0
   -1.5837    1.6568    0.6617 H   0  0  0  0  0  0  0  0  0  0  0  0
    0.7230    0.6982    2.3239 H   0  0  0  0  0  0  0  0  0  0  0  0
    0.4599   -1.6451    0.5625 H   0  0  0  0  0  0  0  0  0  0  0  0
   -1.8178   -1.9807    0.9316 H   0  0  0  0  0  0  0  0  0  0  0  0
  1  2  1  0
  2  3  1  0
  3  4  1  0
  4  5  1  0
  5  6  1  0
  6  7  1  0
  6  8  1  0
  8  9  1  0
  6  2  1  0
  8  3  1  0
  1 10  1  0
  2 11  1  0
  3 12  1  0
  5 13  1  0
  5 14  1  0
  7 15  1  0
  8 16  1  0
  9 17  1  0
M  END
