
     RDKit          3D

 19 20  0  0  0  0  0  0  0  0999 V2000
   -2.3722   -0.0356   -0.8217 O   0  0  0  0  0  0  0  0  0  0  0  0
   -1.3635    0.1460    0.1383 C   0  0  0  0  0  0  0  0  0  0  0  0
   -0.4382    1.2759   -0.2257 C   0  0  0  0  0  0  0  0  0  0  0  0
    0.8172    0.7363   -0.8458 C   0  0  0  0  0  0  0  0  0  0  0  0
    0.4423   -0.3376   -1.6726 O   0  0  0  0  0  0  0  0  0  0  0  0
    0.5765   -1.1866   -0.5864 C   0  0  0  0  0  0  0  0  0  0  0  0
   -0.6532   -1.1761    0.2793 C   0  0  0  0  0  0  0  0  0  0  0  0
    1.5637   -0.2111    0.0320 C   0  0  0  0  0  0  0  0  0  0  0  0
    1.4215   -0.0406    1.3973 O   0  0  0  0  0  0  0  0  0  0  0  0
   -2.6176    0.8230   -1.2563 H   0  0  0  0  0  0  0  0  0  0  0  0
   -1.8422    0.3746    1.1007 H   0  0  0  0  0  0  0  0  0  0  0  0
   -0.2622    1.9803    0.6025 H   0  0  0  0  0  0  0  0  0  0  0  0
   -0.9631    1.8654   -1.0276 H   0  0  0  0  0  0  0  0  0  0  0  0
    1.4262    1.4412   -1.4314 H   0  0  0  0  0  0  0  0  0  0  0  0
    0.9873   -2.1658   -0.8459 H   0  0  0  0  0  0  0  0  0  0  0  0
   -0.3145   -1.2861    1.3309 H   0  0  0  0  0  0  0  0  0  0  0  0
   -1.2793   -2.0372    0.0143 H   0  0  0  0  0  0  0  0  0  0  0  0
    2.5707   -0.4234   -0.3293 H   0  0  0  0  0  0  0  0  0  0  0  0
    2.3005    0.2573    1.7579 H   0  0  0  0  0  0  0  0  0  0  0  0
  1  2  1  0
  2  3  1  0
  3  4  1  0
  4  5  1  0
  5  6  1  0
  6  7  1  0
  6  8  1  0
  8  9  1  0
  7  2  1  0
  8  4  1  0
  1 10  1  0
  2 11  1  0
  3 12  1  0
  3 13  1  0
  4 14  1  0
  6 15  1  0
  7 16  1  0
  7 17  1  0
  8 18  1  0
  9 19  1  0
M  END
