
     RDKit          3D

 21 23  0  0  0  0  0  0  0  0999 V2000
    3.1492   -0.5226   -0.4608 O   0  0  0  0  0  0  0  0  0  0  0  0
    1.9931   -0.0690    0.1260 C   0  0  0  0  0  0  0  0  0  0  0  0
    0.7403   -0.9548    0.0830 C   0  0  0  0  0  0  0  0  0  0  0  0
   -0.0838   -0.8900    1.3107 C   0  0  0  0  0  0  0  0  0  0  0  0
   -1.3383   -0.1050    1.2014 C   0  0  0  0  0  0  0  0  0  0  0  0
   -2.1124   -0.2839   -0.0699 C   0  0  0  0  0  0  0  0  0  0  0  0
   -1.3918    0.9633    0.2266 C   0  0  0  0  0  0  0  0  0  0  0  0
   -0.1128    1.3489   -0.4424 C   0  0  0  0  0  0  0  0  0  0  0  0
    0.7803    0.2174   -0.7729 C   0  0  0  0  0  0  0  0  0  0  0  0
    3.0196   -0.5460   -1.4518 H   0  0  0  0  0  0  0  0  0  0  0  0
    2.1112    0.6259    0.9741 H   0  0  0  0  0  0  0  0  0  0  0  0
    0.9499   -1.9517   -0.3945 H   0  0  0  0  0  0  0  0  0  0  0  0
   -0.3730   -1.9484    1.5821 H   0  0  0  0  0  0  0  0  0  0  0  0
    0.5032   -0.5341    2.1916 H   0  0  0  0  0  0  0  0  0  0  0  0
   -1.8683    0.0554    2.1667 H   0  0  0  0  0  0  0  0  0  0  0  0
   -1.7551   -1.0380   -0.7904 H   0  0  0  0  0  0  0  0  0  0  0  0
   -3.2118   -0.3208    0.0779 H   0  0  0  0  0  0  0  0  0  0  0  0
   -2.0549    1.8494    0.4423 H   0  0  0  0  0  0  0  0  0  0  0  0
    0.4343    2.0713    0.2178 H   0  0  0  0  0  0  0  0  0  0  0  0
   -0.3840    1.9485   -1.3513 H   0  0  0  0  0  0  0  0  0  0  0  0
    1.0050    0.0844   -1.8457 H   0  0  0  0  0  0  0  0  0  0  0  0
  1  2  1  0
  2  3  1  0
  3  4  1  0
  4  5  1  0
  5  6  1  0
  6  7  1  0
  7  8  1  0
  8  9  1  0
  9  2  1  0
  9  3  1  0
  7  5  1  0
  1 10  1  0
  2 11  1  0
  3 12  1  0
  4 13  1  0
  4 14  1  0
  5 15  1  0
  6 16  1  0
  6 17  1  0
  7 18  1  0
  8 19  1  0
  8 20  1  0
  9 21  1  0
M  END
