
     RDKit          3D

 15 16  0  0  0  0  0  0  0  0999 V2000
   -2.5512    0.0734    0.8139 O   0  0  0  0  0  0  0  0  0  0  0  0
   -1.1881    0.3071    0.6894 C   0  0  0  0  0  0  0  0  0  0  0  0
   -0.7781    0.7413   -0.7240 C   0  0  0  0  0  0  0  0  0  0  0  0
   -0.4040   -0.6254   -0.1608 C   0  0  0  0  0  0  0  0  0  0  0  0
    1.0496   -0.8510    0.0500 C   0  0  0  0  0  0  0  0  0  0  0  0
    2.0731    0.2316   -0.0182 C   0  0  0  0  0  0  0  0  0  0  0  0
    1.6545   -0.4498    1.2432 O   0  0  0  0  0  0  0  0  0  0  0  0
   -2.8267   -0.3865   -0.0331 H   0  0  0  0  0  0  0  0  0  0  0  0
   -0.7432    0.8057    1.5557 H   0  0  0  0  0  0  0  0  0  0  0  0
   -1.5481    0.6805   -1.5240 H   0  0  0  0  0  0  0  0  0  0  0  0
   -0.0800    1.5717   -0.7105 H   0  0  0  0  0  0  0  0  0  0  0  0
   -0.9779   -1.5062   -0.5316 H   0  0  0  0  0  0  0  0  0  0  0  0
    1.4277   -1.8213   -0.4041 H   0  0  0  0  0  0  0  0  0  0  0  0
    3.1251   -0.0479   -0.2370 H   0  0  0  0  0  0  0  0  0  0  0  0
    1.7671    1.2765   -0.0090 H   0  0  0  0  0  0  0  0  0  0  0  0
  1  2  1  0
  2  3  1  0
  3  4  1  0
  4  5  1  0
  5  6  1  0
  6  7  1  0
  4  2  1  0
  7  5  1  0
  1  8  1  0
  2  9  1  0
  3 10  1  0
  3 11  1  0
  4 12  1  0
  5 13  1  0
  6 14  1  0
  6 15  1  0
M  END
