
     RDKit          3D

 19 22  0  0  0  0  0  0  0  0999 V2000
    2.2112   -0.8820   -0.8198 O   0  0  0  0  0  0  0  0  0  0  0  0
    1.4335   -0.1463    0.0357 C   0  0  0  0  0  0  0  0  0  0  0  0
    0.8808    1.1219   -0.5915 C   0  0  0  0  0  0  0  0  0  0  0  0
   -0.5428    1.2457   -0.2003 C   0  0  0  0  0  0  0  0  0  0  0  0
   -0.6775    0.2303    0.9424 C   0  0  0  0  0  0  0  0  0  0  0  0
    0.1889   -0.9002    0.5021 C   0  0  0  0  0  0  0  0  0  0  0  0
   -0.8047   -1.1112   -0.6342 C   0  0  0  0  0  0  0  0  0  0  0  0
   -1.3715    0.2173   -0.9969 C   0  0  0  0  0  0  0  0  0  0  0  0
   -1.8161   -0.3227    0.2458 C   0  0  0  0  0  0  0  0  0  0  0  0
    3.0577   -1.2084   -0.3823 H   0  0  0  0  0  0  0  0  0  0  0  0
    1.9966    0.1679    0.9552 H   0  0  0  0  0  0  0  0  0  0  0  0
    1.4419    2.0165   -0.3322 H   0  0  0  0  0  0  0  0  0  0  0  0
    0.9425    0.9754   -1.7081 H   0  0  0  0  0  0  0  0  0  0  0  0
   -0.9946    2.2010   -0.0500 H   0  0  0  0  0  0  0  0  0  0  0  0
   -0.6679    0.5893    1.9308 H   0  0  0  0  0  0  0  0  0  0  0  0
    0.3513   -1.7314    1.1678 H   0  0  0  0  0  0  0  0  0  0  0  0
   -1.1074   -2.0622   -0.9896 H   0  0  0  0  0  0  0  0  0  0  0  0
   -1.8721    0.4714   -1.8939 H   0  0  0  0  0  0  0  0  0  0  0  0
   -2.6498   -0.8722    0.5582 H   0  0  0  0  0  0  0  0  0  0  0  0
  1  2  1  0
  2  3  1  0
  3  4  1  0
  4  5  1  0
  5  6  1  0
  6  7  1  0
  7  8  1  0
  8  9  1  0
  6  2  1  0
  9  7  1  0
  8  4  1  0
  9  5  1  0
  1 10  1  0
  2 11  1  0
  3 12  1  0
  3 13  1  0
  4 14  1  0
  5 15  1  0
  6 16  1  0
  7 17  1  0
  8 18  1  0
  9 19  1  0
M  END
