
     RDKit          3D

 19 21  0  0  0  0  0  0  0  0999 V2000
    1.0599    1.6179   -1.3068 O   0  0  0  0  0  0  0  0  0  0  0  0
    0.6801    0.3602   -0.9026 C   0  0  0  0  0  0  0  0  0  0  0  0
    1.4665   -0.0293    0.3554 C   0  0  0  0  0  0  0  0  0  0  0  0
    0.6265   -1.1993    0.8494 C   0  0  0  0  0  0  0  0  0  0  0  0
   -0.7846   -0.7313    0.6928 C   0  0  0  0  0  0  0  0  0  0  0  0
   -1.4955   -1.0387   -0.5682 C   0  0  0  0  0  0  0  0  0  0  0  0
   -0.7544    0.2593   -0.5113 C   0  0  0  0  0  0  0  0  0  0  0  0
   -1.3585    1.2673    0.4346 C   0  0  0  0  0  0  0  0  0  0  0  0
   -1.1174    0.3706    1.4703 O   0  0  0  0  0  0  0  0  0  0  0  0
    2.0435    1.7187   -1.1594 H   0  0  0  0  0  0  0  0  0  0  0  0
    0.8932   -0.4369   -1.6397 H   0  0  0  0  0  0  0  0  0  0  0  0
    1.4860    0.7831    1.0942 H   0  0  0  0  0  0  0  0  0  0  0  0
    2.4786   -0.3432    0.0433 H   0  0  0  0  0  0  0  0  0  0  0  0
    0.9255   -1.3660    1.9129 H   0  0  0  0  0  0  0  0  0  0  0  0
    0.8707   -2.0970    0.2586 H   0  0  0  0  0  0  0  0  0  0  0  0
   -1.0519   -1.8023   -1.2049 H   0  0  0  0  0  0  0  0  0  0  0  0
   -2.6165   -0.9055   -0.5812 H   0  0  0  0  0  0  0  0  0  0  0  0
   -0.8809    2.2406    0.4970 H   0  0  0  0  0  0  0  0  0  0  0  0
   -2.4708    1.3319    0.2656 H   0  0  0  0  0  0  0  0  0  0  0  0
  1  2  1  0
  2  3  1  0
  3  4  1  0
  4  5  1  0
  5  6  1  0
  6  7  1  0
  7  8  1  0
  8  9  1  0
  7  2  1  0
  7  5  1  0
  9  5  1  0
  1 10  1  0
  2 11  1  0
  3 12  1  0
  3 13  1  0
  4 14  1  0
  4 15  1  0
  6 16  1  0
  6 17  1  0
  8 18  1  0
  8 19  1  0
M  END
