
     RDKit          3D

 19 21  0  0  0  0  0  0  0  0999 V2000
   -2.6049   -0.5093    0.7474 O   0  0  0  0  0  0  0  0  0  0  0  0
   -1.3067   -0.5778    0.3180 C   0  0  0  0  0  0  0  0  0  0  0  0
   -0.8835    0.4601   -0.7028 C   0  0  0  0  0  0  0  0  0  0  0  0
   -1.0224    1.4510    0.4214 C   0  0  0  0  0  0  0  0  0  0  0  0
   -0.3091    0.2783    1.0543 C   0  0  0  0  0  0  0  0  0  0  0  0
    0.4805    0.2195   -0.1960 C   0  0  0  0  0  0  0  0  0  0  0  0
    1.2146   -0.9907   -0.5553 C   0  0  0  0  0  0  0  0  0  0  0  0
    2.3765    0.0021   -0.4745 C   0  0  0  0  0  0  0  0  0  0  0  0
    1.4745    1.0887   -0.4258 O   0  0  0  0  0  0  0  0  0  0  0  0
   -3.0846   -1.3079    0.3578 H   0  0  0  0  0  0  0  0  0  0  0  0
   -0.9045   -1.5920    0.1583 H   0  0  0  0  0  0  0  0  0  0  0  0
   -1.2316    0.5457   -1.6345 H   0  0  0  0  0  0  0  0  0  0  0  0
   -0.3340    2.3024    0.2903 H   0  0  0  0  0  0  0  0  0  0  0  0
   -2.0289    1.6585    0.7809 H   0  0  0  0  0  0  0  0  0  0  0  0
   -0.0240    0.1934    2.0074 H   0  0  0  0  0  0  0  0  0  0  0  0
    1.2118   -1.7496    0.2538 H   0  0  0  0  0  0  0  0  0  0  0  0
    1.0883   -1.3925   -1.5793 H   0  0  0  0  0  0  0  0  0  0  0  0
    3.0416    0.0084   -1.3441 H   0  0  0  0  0  0  0  0  0  0  0  0
    2.8463   -0.0883    0.5229 H   0  0  0  0  0  0  0  0  0  0  0  0
  1  2  1  0
  2  3  1  0
  3  4  1  0
  4  5  1  0
  5  6  1  0
  6  7  1  0
  7  8  1  0
  8  9  1  0
  5  2  1  0
  9  6  1  0
  6  3  1  0
  1 10  1  0
  2 11  1  0
  3 12  1  0
  4 13  1  0
  4 14  1  0
  5 15  1  0
  7 16  1  0
  7 17  1  0
  8 18  1  0
  8 19  1  0
M  END
