
     RDKit          3D

 17 18  0  0  0  0  0  0  0  0999 V2000
   -2.2295   -0.0824   -0.8479 O   0  0  0  0  0  0  0  0  0  0  0  0
   -1.4591   -0.0925    0.3155 C   0  0  0  0  0  0  0  0  0  0  0  0
   -0.7200    1.1837    0.4894 C   0  0  0  0  0  0  0  0  0  0  0  0
    0.5067    1.2710   -0.0023 C   0  0  0  0  0  0  0  0  0  0  0  0
    1.1307    0.0964   -0.7208 C   0  0  0  0  0  0  0  0  0  0  0  0
    2.5158    0.2281   -0.7266 O   0  0  0  0  0  0  0  0  0  0  0  0
    0.7361   -1.1621   -0.0158 C   0  0  0  0  0  0  0  0  0  0  0  0
    0.4893   -1.0223    1.4097 O   0  0  0  0  0  0  0  0  0  0  0  0
   -0.5547   -1.2870    0.3830 C   0  0  0  0  0  0  0  0  0  0  0  0
   -2.0930    0.7384   -1.3816 H   0  0  0  0  0  0  0  0  0  0  0  0
   -2.1965   -0.1968    1.1593 H   0  0  0  0  0  0  0  0  0  0  0  0
   -1.1323    2.0411    0.9953 H   0  0  0  0  0  0  0  0  0  0  0  0
    1.0767    2.1832    0.1041 H   0  0  0  0  0  0  0  0  0  0  0  0
    0.7784    0.0941   -1.7705 H   0  0  0  0  0  0  0  0  0  0  0  0
    2.8053    0.2731    0.2136 H   0  0  0  0  0  0  0  0  0  0  0  0
    1.4265   -2.0077   -0.1846 H   0  0  0  0  0  0  0  0  0  0  0  0
   -1.0803   -2.2583    0.5801 H   0  0  0  0  0  0  0  0  0  0  0  0
  1  2  1  0
  2  3  1  0
  3  4  2  0
  4  5  1  0
  5  6  1  0
  5  7  1  0
  7  8  1  0
  8  9  1  0
  9  2  1  0
  9  7  1  0
  1 10  1  0
  2 11  1  0
  3 12  1  0
  4 13  1  0
  5 14  1  0
  6 15  1  0
  7 16  1  0
  9 17  1  0
M  END
