
     RDKit          3D

 21 22  0  0  0  0  0  0  0  0999 V2000
    2.6096    1.3538    0.6808 O   0  0  0  0  0  0  0  0  0  0  0  0
    2.0067    0.1043    0.6553 C   0  0  0  0  0  0  0  0  0  0  0  0
    1.4529   -0.1798   -0.7255 C   0  0  0  0  0  0  0  0  0  0  0  0
    0.1484   -0.5116   -0.1092 C   0  0  0  0  0  0  0  0  0  0  0  0
    0.0271   -1.9133    0.0406 O   0  0  0  0  0  0  0  0  0  0  0  0
   -1.0827    0.0256   -0.7551 C   0  0  0  0  0  0  0  0  0  0  0  0
   -2.3746   -0.3846   -0.0268 C   0  0  0  0  0  0  0  0  0  0  0  0
   -1.9483    1.0388   -0.1663 C   0  0  0  0  0  0  0  0  0  0  0  0
    0.5829    0.1123    1.1745 C   0  0  0  0  0  0  0  0  0  0  0  0
    3.0158    1.5065   -0.1962 H   0  0  0  0  0  0  0  0  0  0  0  0
    2.6029   -0.7224    1.1024 H   0  0  0  0  0  0  0  0  0  0  0  0
    1.4887    0.6901   -1.4192 H   0  0  0  0  0  0  0  0  0  0  0  0
    2.0035   -1.0254   -1.1819 H   0  0  0  0  0  0  0  0  0  0  0  0
   -0.3354   -2.2256   -0.8482 H   0  0  0  0  0  0  0  0  0  0  0  0
   -1.0956   -0.0950   -1.8711 H   0  0  0  0  0  0  0  0  0  0  0  0
   -3.1700   -0.8176   -0.6468 H   0  0  0  0  0  0  0  0  0  0  0  0
   -2.2930   -0.8253    0.9732 H   0  0  0  0  0  0  0  0  0  0  0  0
   -1.7261    1.5868    0.7611 H   0  0  0  0  0  0  0  0  0  0  0  0
   -2.5505    1.6707   -0.8835 H   0  0  0  0  0  0  0  0  0  0  0  0
    0.4045   -0.5254    2.0674 H   0  0  0  0  0  0  0  0  0  0  0  0
    0.2331    1.1370    1.3744 H   0  0  0  0  0  0  0  0  0  0  0  0
  1  2  1  0
  2  3  1  0
  3  4  1  0
  4  5  1  0
  4  6  1  0
  6  7  1  0
  7  8  1  0
  4  9  1  0
  9  2  1  0
  8  6  1  0
  1 10  1  0
  2 11  1  0
  3 12  1  0
  3 13  1  0
  5 14  1  0
  6 15  1  0
  7 16  1  0
  7 17  1  0
  8 18  1  0
  8 19  1  0
  9 20  1  0
  9 21  1  0
M  END
