
     RDKit          3D

 19 21  0  0  0  0  0  0  0  0999 V2000
   -2.6255   -0.3926   -0.5149 O   0  0  0  0  0  0  0  0  0  0  0  0
   -1.8431    0.6885   -0.8466 C   0  0  0  0  0  0  0  0  0  0  0  0
   -0.9982    1.2239    0.2564 C   0  0  0  0  0  0  0  0  0  0  0  0
   -0.2235    0.2019    1.0701 C   0  0  0  0  0  0  0  0  0  0  0  0
    0.4285   -0.2493   -0.1746 C   0  0  0  0  0  0  0  0  0  0  0  0
    0.8012   -1.5951   -0.5331 C   0  0  0  0  0  0  0  0  0  0  0  0
    1.8430   -0.5186   -0.3359 C   0  0  0  0  0  0  0  0  0  0  0  0
    2.4952    0.0288   -1.4154 O   0  0  0  0  0  0  0  0  0  0  0  0
   -0.3965    0.6481   -0.9991 C   0  0  0  0  0  0  0  0  0  0  0  0
   -2.3104   -1.2568   -0.8213 H   0  0  0  0  0  0  0  0  0  0  0  0
   -2.3783    1.4752   -1.4547 H   0  0  0  0  0  0  0  0  0  0  0  0
   -0.9325    2.2841    0.4885 H   0  0  0  0  0  0  0  0  0  0  0  0
    0.5347    0.6556    1.7571 H   0  0  0  0  0  0  0  0  0  0  0  0
   -0.8590   -0.5035    1.6228 H   0  0  0  0  0  0  0  0  0  0  0  0
    0.7518   -2.4483    0.1766 H   0  0  0  0  0  0  0  0  0  0  0  0
    0.5982   -1.9346   -1.5865 H   0  0  0  0  0  0  0  0  0  0  0  0
    2.4364   -0.6557    0.6141 H   0  0  0  0  0  0  0  0  0  0  0  0
    2.5837    1.0192   -1.2597 H   0  0  0  0  0  0  0  0  0  0  0  0
    0.0943    1.3293   -1.7365 H   0  0  0  0  0  0  0  0  0  0  0  0
  1  2  1  0
  2  3  1  0
  3  4  1  0
  4  5  1  0
  5  6  1  0
  6  7  1  0
  7  8  1  0
  5  9  1  0
  9  2  1  0
  9  3  1  0
  7  5  1  0
  1 10  1  0
  2 11  1  0
  3 12  1  0
  4 13  1  0
  4 14  1  0
  6 15  1  0
  6 16  1  0
  7 17  1  0
  8 18  1  0
  9 19  1  0
M  END
