
     RDKit          3D

 17 19  0  0  0  0  0  0  0  0999 V2000
    2.7048   -0.2360    0.7360 O   0  0  0  0  0  0  0  0  0  0  0  0
    1.8658    0.2508   -0.2996 C   0  0  0  0  0  0  0  0  0  0  0  0
    0.8679   -0.4977   -0.9103 C   0  0  0  0  0  0  0  0  0  0  0  0
   -0.2875   -0.4277   -1.5655 O   0  0  0  0  0  0  0  0  0  0  0  0
   -1.2822    0.2247   -0.9609 C   0  0  0  0  0  0  0  0  0  0  0  0
   -2.0518    0.2546    0.2062 C   0  0  0  0  0  0  0  0  0  0  0  0
   -0.6789    0.0104    0.4973 C   0  0  0  0  0  0  0  0  0  0  0  0
   -0.5232   -1.3518    0.8793 O   0  0  0  0  0  0  0  0  0  0  0  0
    0.5627    0.6432    0.1531 C   0  0  0  0  0  0  0  0  0  0  0  0
    2.2054   -0.4996    1.5242 H   0  0  0  0  0  0  0  0  0  0  0  0
    2.5280    0.8549   -0.9933 H   0  0  0  0  0  0  0  0  0  0  0  0
    0.8462   -1.5515   -0.4492 H   0  0  0  0  0  0  0  0  0  0  0  0
   -1.1462    1.2933   -1.3642 H   0  0  0  0  0  0  0  0  0  0  0  0
   -2.8764   -0.5128    0.2920 H   0  0  0  0  0  0  0  0  0  0  0  0
   -2.4656    1.2064    0.6599 H   0  0  0  0  0  0  0  0  0  0  0  0
   -0.6534   -1.3439    1.8585 H   0  0  0  0  0  0  0  0  0  0  0  0
    0.3843    1.6829   -0.2635 H   0  0  0  0  0  0  0  0  0  0  0  0
  1  2  1  0
  2  3  1  0
  3  4  1  0
  4  5  1  0
  5  6  1  0
  6  7  1  0
  7  8  1  0
  7  9  1  0
  9  2  1  0
  9  3  1  0
  7  5  1  0
  1 10  1  0
  2 11  1  0
  3 12  1  0
  5 13  1  0
  6 14  1  0
  6 15  1  0
  8 16  1  0
  9 17  1  0
M  END
