
     RDKit          3D

 19 21  0  0  0  0  0  0  0  0999 V2000
    2.4415    0.4088   -0.8654 O   0  0  0  0  0  0  0  0  0  0  0  0
    1.5283   -0.5568   -0.4652 C   0  0  0  0  0  0  0  0  0  0  0  0
    1.5096   -0.8086    1.0198 C   0  0  0  0  0  0  0  0  0  0  0  0
    0.3624   -0.2575    0.3659 C   0  0  0  0  0  0  0  0  0  0  0  0
   -0.9698   -0.8712    0.2141 C   0  0  0  0  0  0  0  0  0  0  0  0
   -1.1503   -1.7972   -0.7962 O   0  0  0  0  0  0  0  0  0  0  0  0
   -1.5920    0.4650    0.0389 C   0  0  0  0  0  0  0  0  0  0  0  0
   -0.9898    1.5442   -0.7620 C   0  0  0  0  0  0  0  0  0  0  0  0
   -0.2311    1.0763    0.4909 C   0  0  0  0  0  0  0  0  0  0  0  0
    2.0681    1.3020   -0.9705 H   0  0  0  0  0  0  0  0  0  0  0  0
    1.4603   -1.4094   -1.1717 H   0  0  0  0  0  0  0  0  0  0  0  0
    2.1082   -0.1743    1.6943 H   0  0  0  0  0  0  0  0  0  0  0  0
    1.4878   -1.9044    1.2742 H   0  0  0  0  0  0  0  0  0  0  0  0
   -1.3062   -1.3298    1.1869 H   0  0  0  0  0  0  0  0  0  0  0  0
   -2.1229   -1.9614   -0.9098 H   0  0  0  0  0  0  0  0  0  0  0  0
   -2.4617    0.7348    0.6791 H   0  0  0  0  0  0  0  0  0  0  0  0
   -0.4082    1.3461   -1.6809 H   0  0  0  0  0  0  0  0  0  0  0  0
   -1.4642    2.5215   -0.7348 H   0  0  0  0  0  0  0  0  0  0  0  0
   -0.2700    1.6718    1.3924 H   0  0  0  0  0  0  0  0  0  0  0  0
  1  2  1  0
  2  3  1  0
  3  4  1  0
  4  5  1  0
  5  6  1  0
  5  7  1  0
  7  8  1  0
  8  9  1  0
  4  2  1  0
  9  7  1  0
  9  4  1  0
  1 10  1  0
  2 11  1  0
  3 12  1  0
  3 13  1  0
  5 14  1  0
  6 15  1  0
  7 16  1  0
  8 17  1  0
  8 18  1  0
  9 19  1  0
M  END
