
     RDKit          3D

 15 15  0  0  0  0  0  0  0  0999 V2000
    1.3805    0.2236    1.0853 O   0  0  0  0  0  0  0  0  0  0  0  0
    0.7414   -0.5461    0.0910 C   0  0  0  0  0  0  0  0  0  0  0  0
    0.7722    0.1958   -1.2024 C   0  0  0  0  0  0  0  0  0  0  0  0
   -0.3781    0.9054   -1.3538 O   0  0  0  0  0  0  0  0  0  0  0  0
   -1.1955    0.7107   -0.2662 C   0  0  0  0  0  0  0  0  0  0  0  0
   -0.7499   -0.5643    0.4113 C   0  0  0  0  0  0  0  0  0  0  0  0
   -0.8487   -0.5082    1.7907 O   0  0  0  0  0  0  0  0  0  0  0  0
    1.3265    1.1596    0.7923 H   0  0  0  0  0  0  0  0  0  0  0  0
    1.1746   -1.5458    0.0255 H   0  0  0  0  0  0  0  0  0  0  0  0
    0.9099   -0.5423   -2.0173 H   0  0  0  0  0  0  0  0  0  0  0  0
    1.6240    0.9084   -1.1668 H   0  0  0  0  0  0  0  0  0  0  0  0
   -1.1358    1.5958    0.3773 H   0  0  0  0  0  0  0  0  0  0  0  0
   -2.2354    0.5490   -0.6658 H   0  0  0  0  0  0  0  0  0  0  0  0
   -1.2598   -1.4219   -0.0437 H   0  0  0  0  0  0  0  0  0  0  0  0
   -0.1258   -1.1198    2.1425 H   0  0  0  0  0  0  0  0  0  0  0  0
  1  2  1  0
  2  3  1  0
  3  4  1  0
  4  5  1  0
  5  6  1  0
  6  7  1  0
  6  2  1  0
  1  8  1  0
  2  9  1  0
  3 10  1  0
  3 11  1  0
  5 12  1  0
  5 13  1  0
  6 14  1  0
  7 15  1  0
M  END
