
     RDKit          3D

 19 20  0  0  0  0  0  0  0  0999 V2000
    2.4644    0.1811   -0.1091 O   0  0  0  0  0  0  0  0  0  0  0  0
    1.2175    0.7335    0.0944 C   0  0  0  0  0  0  0  0  0  0  0  0
    0.4766    0.1581    1.2636 C   0  0  0  0  0  0  0  0  0  0  0  0
   -0.8114   -0.5352    0.8231 C   0  0  0  0  0  0  0  0  0  0  0  0
   -1.6145    0.5580    0.1429 C   0  0  0  0  0  0  0  0  0  0  0  0
   -0.9813    1.0065   -0.9370 C   0  0  0  0  0  0  0  0  0  0  0  0
    0.3805    0.4534   -1.1591 C   0  0  0  0  0  0  0  0  0  0  0  0
    0.3236   -0.9574   -1.2334 O   0  0  0  0  0  0  0  0  0  0  0  0
   -0.4934   -1.5221   -0.2890 C   0  0  0  0  0  0  0  0  0  0  0  0
    2.4724   -0.7284   -0.4462 H   0  0  0  0  0  0  0  0  0  0  0  0
    1.3586    1.8456    0.1987 H   0  0  0  0  0  0  0  0  0  0  0  0
    1.0964   -0.5097    1.8907 H   0  0  0  0  0  0  0  0  0  0  0  0
    0.1621    0.9988    1.9185 H   0  0  0  0  0  0  0  0  0  0  0  0
   -1.3202   -0.9687    1.6702 H   0  0  0  0  0  0  0  0  0  0  0  0
   -2.5575    0.9002    0.5052 H   0  0  0  0  0  0  0  0  0  0  0  0
   -1.4073    1.7218   -1.6179 H   0  0  0  0  0  0  0  0  0  0  0  0
    0.8301    0.8700   -2.0512 H   0  0  0  0  0  0  0  0  0  0  0  0
   -0.1133   -2.4800    0.1313 H   0  0  0  0  0  0  0  0  0  0  0  0
   -1.4834   -1.7255   -0.7957 H   0  0  0  0  0  0  0  0  0  0  0  0
  1  2  1  0
  2  3  1  0
  3  4  1  0
  4  5  1  0
  5  6  2  0
  6  7  1  0
  7  8  1  0
  8  9  1  0
  7  2  1  0
  9  4  1  0
  1 10  1  0
  2 11  1  0
  3 12  1  0
  3 13  1  0
  4 14  1  0
  5 15  1  0
  6 16  1  0
  7 17  1  0
  9 18  1  0
  9 19  1  0
M  END
