
     RDKit          3D

 21 22  0  0  0  0  0  0  0  0999 V2000
    2.0986    1.3067    0.3573 O   0  0  0  0  0  0  0  0  0  0  0  0
    1.0637    0.7060   -0.3992 C   0  0  0  0  0  0  0  0  0  0  0  0
    1.3067   -0.7185   -0.6150 C   0  0  0  0  0  0  0  0  0  0  0  0
    0.2380   -1.6790   -0.2688 C   0  0  0  0  0  0  0  0  0  0  0  0
   -1.1142   -0.9904   -0.0769 C   0  0  0  0  0  0  0  0  0  0  0  0
   -0.8380   -0.0185    1.0796 C   0  0  0  0  0  0  0  0  0  0  0  0
   -0.2215    1.1039    0.2321 C   0  0  0  0  0  0  0  0  0  0  0  0
   -1.2877    1.1006   -0.8778 C   0  0  0  0  0  0  0  0  0  0  0  0
   -1.3459   -0.2339   -1.1914 O   0  0  0  0  0  0  0  0  0  0  0  0
    1.8409    1.4654    1.2800 H   0  0  0  0  0  0  0  0  0  0  0  0
    1.1125    1.2495   -1.3900 H   0  0  0  0  0  0  0  0  0  0  0  0
    2.2285   -1.0195   -0.0329 H   0  0  0  0  0  0  0  0  0  0  0  0
    1.6091   -0.9262   -1.6857 H   0  0  0  0  0  0  0  0  0  0  0  0
    0.4236   -2.2095    0.7119 H   0  0  0  0  0  0  0  0  0  0  0  0
    0.1382   -2.5237   -1.0084 H   0  0  0  0  0  0  0  0  0  0  0  0
   -1.9061   -1.6921    0.1518 H   0  0  0  0  0  0  0  0  0  0  0  0
   -1.7989    0.3116    1.4649 H   0  0  0  0  0  0  0  0  0  0  0  0
   -0.1371   -0.4294    1.8000 H   0  0  0  0  0  0  0  0  0  0  0  0
   -0.1878    2.0498    0.7668 H   0  0  0  0  0  0  0  0  0  0  0  0
   -2.2737    1.3870   -0.4476 H   0  0  0  0  0  0  0  0  0  0  0  0
   -0.9489    1.7601   -1.6752 H   0  0  0  0  0  0  0  0  0  0  0  0
  1  2  1  0
  2  3  1  0
  3  4  1  0
  4  5  1  0
  5  6  1  0
  6  7  1  0
  7  8  1  0
  8  9  1  0
  7  2  1  0
  9  5  1  0
  1 10  1  0
  2 11  1  0
  3 12  1  0
  3 13  1  0
  4 14  1  0
  4 15  1  0
  5 16  1  0
  6 17  1  0
  6 18  1  0
  7 19  1  0
  8 20  1  0
  8 21  1  0
M  END
