
     RDKit          3D

 17 18  0  0  0  0  0  0  0  0999 V2000
   -0.8131    1.2687   -0.8656 O   0  0  0  0  0  0  0  0  0  0  0  0
   -1.2671    0.2274   -0.0747 C   0  0  0  0  0  0  0  0  0  0  0  0
   -1.1138   -1.0341   -0.8561 C   0  0  0  0  0  0  0  0  0  0  0  0
    0.1264   -1.4905   -0.7252 C   0  0  0  0  0  0  0  0  0  0  0  0
    0.8574   -0.5854    0.1292 C   0  0  0  0  0  0  0  0  0  0  0  0
    1.8385    0.4218   -0.4016 C   0  0  0  0  0  0  0  0  0  0  0  0
    2.1414   -0.6751    0.4893 O   0  0  0  0  0  0  0  0  0  0  0  0
   -0.2230    0.0029    1.0042 C   0  0  0  0  0  0  0  0  0  0  0  0
    0.1815    1.1753    1.6082 O   0  0  0  0  0  0  0  0  0  0  0  0
   -1.4176    2.0189   -0.9522 H   0  0  0  0  0  0  0  0  0  0  0  0
   -2.2747    0.3677    0.3204 H   0  0  0  0  0  0  0  0  0  0  0  0
   -1.9242   -1.4945   -1.4437 H   0  0  0  0  0  0  0  0  0  0  0  0
    0.4839   -2.3928   -1.1978 H   0  0  0  0  0  0  0  0  0  0  0  0
    1.9052    1.4128    0.0870 H   0  0  0  0  0  0  0  0  0  0  0  0
    2.1520    0.2923   -1.4473 H   0  0  0  0  0  0  0  0  0  0  0  0
   -0.5506   -0.7476    1.7518 H   0  0  0  0  0  0  0  0  0  0  0  0
   -0.1021    1.2321    2.5742 H   0  0  0  0  0  0  0  0  0  0  0  0
  1  2  1  0
  2  3  1  0
  3  4  2  0
  4  5  1  0
  5  6  1  0
  6  7  1  0
  5  8  1  0
  8  9  1  0
  8  2  1  0
  7  5  1  0
  1 10  1  0
  2 11  1  0
  3 12  1  0
  4 13  1  0
  6 14  1  0
  6 15  1  0
  8 16  1  0
  9 17  1  0
M  END
