
     RDKit          3D

 19 20  0  0  0  0  0  0  0  0999 V2000
   -2.8903   -0.6094   -0.2634 O   0  0  0  0  0  0  0  0  0  0  0  0
   -1.7735   -0.0326    0.2776 C   0  0  0  0  0  0  0  0  0  0  0  0
   -1.2444    1.1397   -0.5017 C   0  0  0  0  0  0  0  0  0  0  0  0
   -0.0948    0.6855   -1.1759 O   0  0  0  0  0  0  0  0  0  0  0  0
    0.5038   -0.0936   -0.2122 C   0  0  0  0  0  0  0  0  0  0  0  0
   -0.6120   -1.0292    0.1710 C   0  0  0  0  0  0  0  0  0  0  0  0
    1.3412    0.5894    0.7776 C   0  0  0  0  0  0  0  0  0  0  0  0
    1.9071   -0.4676   -0.2006 C   0  0  0  0  0  0  0  0  0  0  0  0
    2.8185    0.0057   -1.1367 O   0  0  0  0  0  0  0  0  0  0  0  0
   -2.7830   -1.5923   -0.3036 H   0  0  0  0  0  0  0  0  0  0  0  0
   -1.8868    0.2650    1.3469 H   0  0  0  0  0  0  0  0  0  0  0  0
   -0.8590    1.9363    0.2011 H   0  0  0  0  0  0  0  0  0  0  0  0
   -1.9836    1.5660   -1.1955 H   0  0  0  0  0  0  0  0  0  0  0  0
   -0.8191   -1.6742   -0.6887 H   0  0  0  0  0  0  0  0  0  0  0  0
   -0.4007   -1.5302    1.1097 H   0  0  0  0  0  0  0  0  0  0  0  0
    1.3596    0.3698    1.8429 H   0  0  0  0  0  0  0  0  0  0  0  0
    1.6203    1.6594    0.5544 H   0  0  0  0  0  0  0  0  0  0  0  0
    2.1540   -1.4358    0.3289 H   0  0  0  0  0  0  0  0  0  0  0  0
    3.6426    0.2482   -0.6159 H   0  0  0  0  0  0  0  0  0  0  0  0
  1  2  1  0
  2  3  1  0
  3  4  1  0
  4  5  1  0
  5  6  1  0
  5  7  1  0
  7  8  1  0
  8  9  1  0
  6  2  1  0
  8  5  1  0
  1 10  1  0
  2 11  1  0
  3 12  1  0
  3 13  1  0
  6 14  1  0
  6 15  1  0
  7 16  1  0
  7 17  1  0
  8 18  1  0
  9 19  1  0
M  END
