
     RDKit          3D

 19 20  0  0  0  0  0  0  0  0999 V2000
    1.6443   -1.4917   -0.5346 O   0  0  0  0  0  0  0  0  0  0  0  0
    0.7482   -0.4731   -0.7234 C   0  0  0  0  0  0  0  0  0  0  0  0
   -0.6272   -0.9335   -0.2236 C   0  0  0  0  0  0  0  0  0  0  0  0
   -1.6001    0.2007   -0.3972 C   0  0  0  0  0  0  0  0  0  0  0  0
   -1.0304    1.3829   -0.7719 O   0  0  0  0  0  0  0  0  0  0  0  0
    0.0930    1.7723   -0.1254 C   0  0  0  0  0  0  0  0  0  0  0  0
    0.9648    0.6084    0.3495 C   0  0  0  0  0  0  0  0  0  0  0  0
    0.4885    0.0840    1.5251 O   0  0  0  0  0  0  0  0  0  0  0  0
   -0.2959   -1.0045    1.2560 C   0  0  0  0  0  0  0  0  0  0  0  0
    2.5310   -1.1848   -0.7995 H   0  0  0  0  0  0  0  0  0  0  0  0
    0.7033   -0.0494   -1.7202 H   0  0  0  0  0  0  0  0  0  0  0  0
   -0.9383   -1.8768   -0.6533 H   0  0  0  0  0  0  0  0  0  0  0  0
   -2.2127    0.3687    0.5276 H   0  0  0  0  0  0  0  0  0  0  0  0
   -2.3219   -0.1050   -1.1839 H   0  0  0  0  0  0  0  0  0  0  0  0
   -0.0707    2.5105    0.6913 H   0  0  0  0  0  0  0  0  0  0  0  0
    0.7416    2.3177   -0.8753 H   0  0  0  0  0  0  0  0  0  0  0  0
    2.0215    0.8847    0.4011 H   0  0  0  0  0  0  0  0  0  0  0  0
    0.3546   -1.9187    1.3701 H   0  0  0  0  0  0  0  0  0  0  0  0
   -1.1936   -1.0925    1.8877 H   0  0  0  0  0  0  0  0  0  0  0  0
  1  2  1  0
  2  3  1  0
  3  4  1  0
  4  5  1  0
  5  6  1  0
  6  7  1  0
  7  8  1  0
  8  9  1  0
  7  2  1  0
  9  3  1  0
  1 10  1  0
  2 11  1  0
  3 12  1  0
  4 13  1  0
  4 14  1  0
  6 15  1  0
  6 16  1  0
  7 17  1  0
  9 18  1  0
  9 19  1  0
M  END
