
     RDKit          3D

 17 18  0  0  0  0  0  0  0  0999 V2000
    1.5801    1.3349   -0.6391 O   0  0  0  0  0  0  0  0  0  0  0  0
    0.4259    1.0676    0.0298 C   0  0  0  0  0  0  0  0  0  0  0  0
    0.6729    0.3042    1.3484 C   0  0  0  0  0  0  0  0  0  0  0  0
    1.3551   -0.8169    0.8236 O   0  0  0  0  0  0  0  0  0  0  0  0
    0.6582   -1.2089   -0.3176 C   0  0  0  0  0  0  0  0  0  0  0  0
   -0.3458   -0.1222   -0.5717 C   0  0  0  0  0  0  0  0  0  0  0  0
   -0.8220    0.0457   -1.7899 O   0  0  0  0  0  0  0  0  0  0  0  0
   -1.3667   -0.2347    0.5656 C   0  0  0  0  0  0  0  0  0  0  0  0
   -0.6138   -0.0054    1.7156 O   0  0  0  0  0  0  0  0  0  0  0  0
    1.7016    0.7951   -1.4748 H   0  0  0  0  0  0  0  0  0  0  0  0
   -0.2382    1.9036    0.2223 H   0  0  0  0  0  0  0  0  0  0  0  0
    1.2478    0.8582    2.0549 H   0  0  0  0  0  0  0  0  0  0  0  0
    1.2984   -1.4474   -1.1596 H   0  0  0  0  0  0  0  0  0  0  0  0
    0.0685   -2.1352   -0.0743 H   0  0  0  0  0  0  0  0  0  0  0  0
   -1.7125    0.4453   -1.7965 H   0  0  0  0  0  0  0  0  0  0  0  0
   -2.1695    0.4940    0.4229 H   0  0  0  0  0  0  0  0  0  0  0  0
   -1.7402   -1.2778    0.6405 H   0  0  0  0  0  0  0  0  0  0  0  0
  1  2  1  0
  2  3  1  0
  3  4  1  0
  4  5  1  0
  5  6  1  0
  6  7  1  0
  6  8  1  0
  8  9  1  0
  6  2  1  0
  9  3  1  0
  1 10  1  0
  2 11  1  0
  3 12  1  0
  5 13  1  0
  5 14  1  0
  7 15  1  0
  8 16  1  0
  8 17  1  0
M  END
