
     RDKit          3D

 19 21  0  0  0  0  0  0  0  0999 V2000
    2.4620   -0.9584   -0.4601 O   0  0  0  0  0  0  0  0  0  0  0  0
    1.5778   -0.5308    0.5258 C   0  0  0  0  0  0  0  0  0  0  0  0
    1.3028    0.9441    0.5045 C   0  0  0  0  0  0  0  0  0  0  0  0
    0.2681   -0.1408    0.1493 C   0  0  0  0  0  0  0  0  0  0  0  0
   -0.9454   -0.1213    1.0748 C   0  0  0  0  0  0  0  0  0  0  0  0
   -1.7896    0.7669    0.2074 C   0  0  0  0  0  0  0  0  0  0  0  0
   -2.7184    0.5500   -0.6670 O   0  0  0  0  0  0  0  0  0  0  0  0
   -1.7302   -0.2273   -0.9977 C   0  0  0  0  0  0  0  0  0  0  0  0
   -0.2778   -0.0107   -1.2576 C   0  0  0  0  0  0  0  0  0  0  0  0
    2.4738   -1.9380   -0.5615 H   0  0  0  0  0  0  0  0  0  0  0  0
    1.7257   -1.0342    1.5082 H   0  0  0  0  0  0  0  0  0  0  0  0
    1.6894    1.5746   -0.3073 H   0  0  0  0  0  0  0  0  0  0  0  0
    1.2095    1.4534    1.4686 H   0  0  0  0  0  0  0  0  0  0  0  0
   -1.4420   -1.1208    1.1023 H   0  0  0  0  0  0  0  0  0  0  0  0
   -0.7166    0.2835    2.0594 H   0  0  0  0  0  0  0  0  0  0  0  0
   -1.2427    1.7485    0.0457 H   0  0  0  0  0  0  0  0  0  0  0  0
   -1.9210   -1.3156   -0.7432 H   0  0  0  0  0  0  0  0  0  0  0  0
    0.0942   -0.8468   -1.9046 H   0  0  0  0  0  0  0  0  0  0  0  0
   -0.0196    0.9234   -1.7471 H   0  0  0  0  0  0  0  0  0  0  0  0
  1  2  1  0
  2  3  1  0
  3  4  1  0
  4  5  1  0
  5  6  1  0
  6  7  1  0
  7  8  1  0
  8  9  1  0
  4  2  1  0
  8  6  1  0
  9  4  1  0
  1 10  1  0
  2 11  1  0
  3 12  1  0
  3 13  1  0
  5 14  1  0
  5 15  1  0
  6 16  1  0
  8 17  1  0
  9 18  1  0
  9 19  1  0
M  END
