
     RDKit          3D

 19 20  0  0  0  0  0  0  0  0999 V2000
   -2.0847    1.3532   -0.4086 O   0  0  0  0  0  0  0  0  0  0  0  0
   -0.9628    0.6830   -0.7612 C   0  0  0  0  0  0  0  0  0  0  0  0
   -1.1370   -0.8489   -0.7080 C   0  0  0  0  0  0  0  0  0  0  0  0
    0.0402   -1.1911    0.1611 C   0  0  0  0  0  0  0  0  0  0  0  0
   -0.0121   -0.1751    1.2856 C   0  0  0  0  0  0  0  0  0  0  0  0
    0.2075    0.8196    0.1414 C   0  0  0  0  0  0  0  0  0  0  0  0
    0.7523    1.9985    0.4211 O   0  0  0  0  0  0  0  0  0  0  0  0
    1.1205   -0.2773   -0.4356 C   0  0  0  0  0  0  0  0  0  0  0  0
    2.3148   -0.2829    0.2339 O   0  0  0  0  0  0  0  0  0  0  0  0
   -2.3635    1.3173    0.5193 H   0  0  0  0  0  0  0  0  0  0  0  0
   -0.6607    0.9904   -1.7814 H   0  0  0  0  0  0  0  0  0  0  0  0
   -1.0453   -1.2699   -1.7296 H   0  0  0  0  0  0  0  0  0  0  0  0
   -2.1050   -1.1105   -0.2499 H   0  0  0  0  0  0  0  0  0  0  0  0
    0.2941   -2.1919    0.3687 H   0  0  0  0  0  0  0  0  0  0  0  0
   -0.9571   -0.0743    1.8072 H   0  0  0  0  0  0  0  0  0  0  0  0
    0.9146   -0.2318    1.8746 H   0  0  0  0  0  0  0  0  0  0  0  0
    1.6858    1.8891    0.7359 H   0  0  0  0  0  0  0  0  0  0  0  0
    1.1400   -0.3122   -1.5268 H   0  0  0  0  0  0  0  0  0  0  0  0
    2.8583   -1.0849    0.0522 H   0  0  0  0  0  0  0  0  0  0  0  0
  1  2  1  0
  2  3  1  0
  3  4  1  0
  4  5  1  0
  5  6  1  0
  6  7  1  0
  6  8  1  0
  8  9  1  0
  6  2  1  0
  8  4  1  0
  1 10  1  0
  2 11  1  0
  3 12  1  0
  3 13  1  0
  4 14  1  0
  5 15  1  0
  5 16  1  0
  7 17  1  0
  8 18  1  0
  9 19  1  0
M  END
