
     RDKit          3D

 19 20  0  0  0  0  0  0  0  0999 V2000
   -1.6062    0.2636    1.2577 O   0  0  0  0  0  0  0  0  0  0  0  0
   -1.5594   -0.2682    0.0014 C   0  0  0  0  0  0  0  0  0  0  0  0
   -0.9705    0.5873   -1.0883 C   0  0  0  0  0  0  0  0  0  0  0  0
    0.0510    1.5479   -0.5528 C   0  0  0  0  0  0  0  0  0  0  0  0
    1.2438    1.2555   -0.0417 C   0  0  0  0  0  0  0  0  0  0  0  0
    1.8677   -0.0997    0.1377 C   0  0  0  0  0  0  0  0  0  0  0  0
    0.7582   -0.9995    0.6491 C   0  0  0  0  0  0  0  0  0  0  0  0
   -0.3708   -1.1813   -0.2906 C   0  0  0  0  0  0  0  0  0  0  0  0
   -0.2704   -0.5709   -1.5096 O   0  0  0  0  0  0  0  0  0  0  0  0
   -2.3054   -0.2120    1.7849 H   0  0  0  0  0  0  0  0  0  0  0  0
   -2.4826   -0.7591   -0.3751 H   0  0  0  0  0  0  0  0  0  0  0  0
   -1.6510    1.0112   -1.8213 H   0  0  0  0  0  0  0  0  0  0  0  0
   -0.2441    2.6100   -0.5992 H   0  0  0  0  0  0  0  0  0  0  0  0
    1.8230    2.1068    0.2791 H   0  0  0  0  0  0  0  0  0  0  0  0
    2.6897   -0.0811    0.8474 H   0  0  0  0  0  0  0  0  0  0  0  0
    2.1709   -0.5248   -0.8518 H   0  0  0  0  0  0  0  0  0  0  0  0
    0.3546   -0.4757    1.5655 H   0  0  0  0  0  0  0  0  0  0  0  0
    1.1801   -1.9529    1.0433 H   0  0  0  0  0  0  0  0  0  0  0  0
   -0.6787   -2.2572   -0.4356 H   0  0  0  0  0  0  0  0  0  0  0  0
  1  2  1  0
  2  3  1  0
  3  4  1  0
  4  5  2  0
  5  6  1  0
  6  7  1  0
  7  8  1  0
  8  9  1  0
  8  2  1  0
  9  3  1  0
  1 10  1  0
  2 11  1  0
  3 12  1  0
  4 13  1  0
  5 14  1  0
  6 15  1  0
  6 16  1  0
  7 17  1  0
  7 18  1  0
  8 19  1  0
M  END
