
     RDKit          3D

 19 20  0  0  0  0  0  0  0  0999 V2000
    2.3076    0.4325   -0.8663 O   0  0  0  0  0  0  0  0  0  0  0  0
    1.3306    0.4093    0.1472 C   0  0  0  0  0  0  0  0  0  0  0  0
    1.0896   -0.9563    0.6902 C   0  0  0  0  0  0  0  0  0  0  0  0
   -0.3557   -1.2998    0.4695 C   0  0  0  0  0  0  0  0  0  0  0  0
   -0.9785   -0.1754   -0.3087 C   0  0  0  0  0  0  0  0  0  0  0  0
   -1.6672   -0.5648   -1.4431 O   0  0  0  0  0  0  0  0  0  0  0  0
   -1.6576    0.8911    0.5066 C   0  0  0  0  0  0  0  0  0  0  0  0
   -0.5988    1.7726    0.3720 O   0  0  0  0  0  0  0  0  0  0  0  0
    0.0469    0.8946   -0.4806 C   0  0  0  0  0  0  0  0  0  0  0  0
    2.3623    1.4040   -1.1289 H   0  0  0  0  0  0  0  0  0  0  0  0
    1.6840    1.1438    0.9163 H   0  0  0  0  0  0  0  0  0  0  0  0
    1.7899   -1.7099    0.2844 H   0  0  0  0  0  0  0  0  0  0  0  0
    1.2682   -0.9287    1.7951 H   0  0  0  0  0  0  0  0  0  0  0  0
   -0.9131   -1.4516    1.4266 H   0  0  0  0  0  0  0  0  0  0  0  0
   -0.3811   -2.2534   -0.1179 H   0  0  0  0  0  0  0  0  0  0  0  0
   -1.0877   -0.7116   -2.2320 H   0  0  0  0  0  0  0  0  0  0  0  0
   -2.5426    1.2987   -0.0351 H   0  0  0  0  0  0  0  0  0  0  0  0
   -1.8305    0.5684    1.5427 H   0  0  0  0  0  0  0  0  0  0  0  0
    0.1337    1.2366   -1.5380 H   0  0  0  0  0  0  0  0  0  0  0  0
  1  2  1  0
  2  3  1  0
  3  4  1  0
  4  5  1  0
  5  6  1  0
  5  7  1  0
  7  8  1  0
  8  9  1  0
  9  2  1  0
  9  5  1  0
  1 10  1  0
  2 11  1  0
  3 12  1  0
  3 13  1  0
  4 14  1  0
  4 15  1  0
  6 16  1  0
  7 17  1  0
  7 18  1  0
  9 19  1  0
M  END
