
     RDKit          3D

 17 18  0  0  0  0  0  0  0  0999 V2000
   -1.1207   -1.3404   -1.1313 O   0  0  0  0  0  0  0  0  0  0  0  0
   -0.7388   -0.7053    0.0671 C   0  0  0  0  0  0  0  0  0  0  0  0
   -1.6305    0.5099    0.2762 C   0  0  0  0  0  0  0  0  0  0  0  0
   -0.3206    1.2527    0.0713 C   0  0  0  0  0  0  0  0  0  0  0  0
    0.4363    0.0450   -0.0222 C   0  0  0  0  0  0  0  0  0  0  0  0
    1.7544    0.4318   -0.3038 C   0  0  0  0  0  0  0  0  0  0  0  0
    1.5128   -0.7902    0.3165 C   0  0  0  0  0  0  0  0  0  0  0  0
   -1.8034   -2.0348   -0.9734 H   0  0  0  0  0  0  0  0  0  0  0  0
   -0.9549   -1.4273    0.9021 H   0  0  0  0  0  0  0  0  0  0  0  0
   -2.0683    0.6030    1.2795 H   0  0  0  0  0  0  0  0  0  0  0  0
   -2.3920    0.6749   -0.4913 H   0  0  0  0  0  0  0  0  0  0  0  0
   -0.3833    1.8169   -0.8912 H   0  0  0  0  0  0  0  0  0  0  0  0
   -0.1838    1.9723    0.8947 H   0  0  0  0  0  0  0  0  0  0  0  0
    2.3218    1.2196    0.2606 H   0  0  0  0  0  0  0  0  0  0  0  0
    2.0698    0.4610   -1.3927 H   0  0  0  0  0  0  0  0  0  0  0  0
    1.8559   -0.9420    1.3846 H   0  0  0  0  0  0  0  0  0  0  0  0
    1.6453   -1.7471   -0.2467 H   0  0  0  0  0  0  0  0  0  0  0  0
  1  2  1  0
  2  3  1  0
  3  4  1  0
  4  5  1  0
  5  6  1  0
  6  7  1  0
  5  2  1  0
  7  5  1  0
  1  8  1  0
  2  9  1  0
  3 10  1  0
  3 11  1  0
  4 12  1  0
  4 13  1  0
  6 14  1  0
  6 15  1  0
  7 16  1  0
  7 17  1  0
M  END
