
     RDKit          3D

 21 22  0  0  0  0  0  0  0  0999 V2000
   -2.1328    0.3890    1.3221 O   0  0  0  0  0  0  0  0  0  0  0  0
   -1.7980    0.2506   -0.0147 C   0  0  0  0  0  0  0  0  0  0  0  0
   -1.3764   -1.0233   -0.6043 C   0  0  0  0  0  0  0  0  0  0  0  0
   -1.3702   -2.1948    0.1877 O   0  0  0  0  0  0  0  0  0  0  0  0
   -0.3520   -0.0391   -0.2710 C   0  0  0  0  0  0  0  0  0  0  0  0
    0.5972   -0.3160    0.8427 C   0  0  0  0  0  0  0  0  0  0  0  0
    1.9554   -0.2462    0.1577 C   0  0  0  0  0  0  0  0  0  0  0  0
    1.8268    0.7567   -0.9510 C   0  0  0  0  0  0  0  0  0  0  0  0
    0.3324    0.8427   -1.2455 C   0  0  0  0  0  0  0  0  0  0  0  0
   -2.3071    1.3619    1.4802 H   0  0  0  0  0  0  0  0  0  0  0  0
   -2.3313    0.9561   -0.7053 H   0  0  0  0  0  0  0  0  0  0  0  0
   -1.6734   -1.2524   -1.6515 H   0  0  0  0  0  0  0  0  0  0  0  0
   -2.0345   -2.1576    0.9066 H   0  0  0  0  0  0  0  0  0  0  0  0
    0.5393    0.4705    1.6271 H   0  0  0  0  0  0  0  0  0  0  0  0
    0.4745   -1.3425    1.2580 H   0  0  0  0  0  0  0  0  0  0  0  0
    2.7253    0.0081    0.8983 H   0  0  0  0  0  0  0  0  0  0  0  0
    2.1939   -1.2280   -0.2874 H   0  0  0  0  0  0  0  0  0  0  0  0
    2.3894    0.4640   -1.8731 H   0  0  0  0  0  0  0  0  0  0  0  0
    2.2225    1.7354   -0.5764 H   0  0  0  0  0  0  0  0  0  0  0  0
    0.1007    0.6607   -2.2998 H   0  0  0  0  0  0  0  0  0  0  0  0
    0.0184    1.9043   -1.0208 H   0  0  0  0  0  0  0  0  0  0  0  0
  1  2  1  0
  2  3  1  0
  3  4  1  0
  3  5  1  0
  5  6  1  0
  6  7  1  0
  7  8  1  0
  8  9  1  0
  5  2  1  0
  9  5  1  0
  1 10  1  0
  2 11  1  0
  3 12  1  0
  4 13  1  0
  6 14  1  0
  6 15  1  0
  7 16  1  0
  7 17  1  0
  8 18  1  0
  8 19  1  0
  9 20  1  0
  9 21  1  0
M  END
