
     RDKit          3D

 17 19  0  0  0  0  0  0  0  0999 V2000
    3.0814    0.0973    0.1065 O   0  0  0  0  0  0  0  0  0  0  0  0
    1.7679   -0.2203    0.4544 C   0  0  0  0  0  0  0  0  0  0  0  0
    0.8697   -0.5028   -0.6954 C   0  0  0  0  0  0  0  0  0  0  0  0
   -0.2255   -1.2951   -0.5032 O   0  0  0  0  0  0  0  0  0  0  0  0
   -1.1224   -0.6785    0.3080 C   0  0  0  0  0  0  0  0  0  0  0  0
   -2.2619    0.0576   -0.3171 C   0  0  0  0  0  0  0  0  0  0  0  0
   -1.5033    1.2155   -0.4606 O   0  0  0  0  0  0  0  0  0  0  0  0
   -0.6599    0.7305    0.5668 C   0  0  0  0  0  0  0  0  0  0  0  0
    0.7426    0.7431    0.0889 C   0  0  0  0  0  0  0  0  0  0  0  0
    3.3695   -0.3591   -0.7265 H   0  0  0  0  0  0  0  0  0  0  0  0
    1.7123   -0.8839    1.3408 H   0  0  0  0  0  0  0  0  0  0  0  0
    1.2220   -0.4420   -1.7389 H   0  0  0  0  0  0  0  0  0  0  0  0
   -1.4457   -1.2420    1.2297 H   0  0  0  0  0  0  0  0  0  0  0  0
   -2.6493   -0.3636   -1.2709 H   0  0  0  0  0  0  0  0  0  0  0  0
   -3.0723    0.2517    0.4348 H   0  0  0  0  0  0  0  0  0  0  0  0
   -0.8986    1.1652    1.5330 H   0  0  0  0  0  0  0  0  0  0  0  0
    1.0735    1.7264   -0.3503 H   0  0  0  0  0  0  0  0  0  0  0  0
  1  2  1  0
  2  3  1  0
  3  4  1  0
  4  5  1  0
  5  6  1  0
  6  7  1  0
  7  8  1  0
  8  9  1  0
  9  2  1  0
  9  3  1  0
  8  5  1  0
  1 10  1  0
  2 11  1  0
  3 12  1  0
  5 13  1  0
  6 14  1  0
  6 15  1  0
  8 16  1  0
  9 17  1  0
M  END
