
     RDKit          3D

 19 20  0  0  0  0  0  0  0  0999 V2000
    2.1548   -0.2159    1.1952 O   0  0  0  0  0  0  0  0  0  0  0  0
    1.9521   -0.3480   -0.1671 C   0  0  0  0  0  0  0  0  0  0  0  0
    0.9405    0.4778   -0.8713 C   0  0  0  0  0  0  0  0  0  0  0  0
    0.0747    1.3903   -0.0925 C   0  0  0  0  0  0  0  0  0  0  0  0
   -1.2053    1.1884    0.1984 C   0  0  0  0  0  0  0  0  0  0  0  0
   -2.1433    0.1049   -0.1075 C   0  0  0  0  0  0  0  0  0  0  0  0
   -1.6427   -1.1606    0.0173 O   0  0  0  0  0  0  0  0  0  0  0  0
   -0.3388   -1.2458    0.4318 C   0  0  0  0  0  0  0  0  0  0  0  0
    0.6546   -0.9575   -0.6692 C   0  0  0  0  0  0  0  0  0  0  0  0
    1.7146    0.5687    1.5842 H   0  0  0  0  0  0  0  0  0  0  0  0
    2.8782   -0.6237   -0.7254 H   0  0  0  0  0  0  0  0  0  0  0  0
    1.1730    0.8140   -1.9007 H   0  0  0  0  0  0  0  0  0  0  0  0
    0.5692    2.2884    0.2502 H   0  0  0  0  0  0  0  0  0  0  0  0
   -1.6107    2.0272    0.7914 H   0  0  0  0  0  0  0  0  0  0  0  0
   -3.0228    0.1836    0.5930 H   0  0  0  0  0  0  0  0  0  0  0  0
   -2.6052    0.1984   -1.1307 H   0  0  0  0  0  0  0  0  0  0  0  0
   -0.1194   -0.6673    1.3518 H   0  0  0  0  0  0  0  0  0  0  0  0
   -0.1683   -2.3227    0.7219 H   0  0  0  0  0  0  0  0  0  0  0  0
    0.7447   -1.7002   -1.4708 H   0  0  0  0  0  0  0  0  0  0  0  0
  1  2  1  0
  2  3  1  0
  3  4  1  0
  4  5  2  0
  5  6  1  0
  6  7  1  0
  7  8  1  0
  8  9  1  0
  9  2  1  0
  9  3  1  0
  1 10  1  0
  2 11  1  0
  3 12  1  0
  4 13  1  0
  5 14  1  0
  6 15  1  0
  6 16  1  0
  8 17  1  0
  8 18  1  0
  9 19  1  0
M  END
