
     RDKit          3D

 16 17  0  0  0  0  0  0  0  0999 V2000
    1.8003   -0.8341    1.1216 O   0  0  0  0  0  0  0  0  0  0  0  0
    1.5293    0.0730    0.1203 C   0  0  0  0  0  0  0  0  0  0  0  0
    1.0200   -0.3941   -1.1811 C   0  0  0  0  0  0  0  0  0  0  0  0
    0.0887    0.3053   -0.2149 C   0  0  0  0  0  0  0  0  0  0  0  0
   -0.2422    1.6355   -0.4360 O   0  0  0  0  0  0  0  0  0  0  0  0
   -0.9753   -0.5849    0.3632 C   0  0  0  0  0  0  0  0  0  0  0  0
   -2.3632    0.0336    0.4146 C   0  0  0  0  0  0  0  0  0  0  0  0
   -1.5393   -0.3214    1.5864 O   0  0  0  0  0  0  0  0  0  0  0  0
    2.5105   -0.5049    1.7572 H   0  0  0  0  0  0  0  0  0  0  0  0
    2.2300    0.9295    0.0888 H   0  0  0  0  0  0  0  0  0  0  0  0
    1.1952    0.1406   -2.1280 H   0  0  0  0  0  0  0  0  0  0  0  0
    0.9330   -1.4862   -1.3052 H   0  0  0  0  0  0  0  0  0  0  0  0
    0.4888    2.1185   -0.8682 H   0  0  0  0  0  0  0  0  0  0  0  0
   -1.0192   -1.6598    0.0339 H   0  0  0  0  0  0  0  0  0  0  0  0
   -3.2490   -0.5880    0.2903 H   0  0  0  0  0  0  0  0  0  0  0  0
   -2.4075    1.1373    0.3571 H   0  0  0  0  0  0  0  0  0  0  0  0
  1  2  1  0
  2  3  1  0
  3  4  1  0
  4  5  1  0
  4  6  1  0
  6  7  1  0
  7  8  1  0
  4  2  1  0
  8  6  1  0
  1  9  1  0
  2 10  1  0
  3 11  1  0
  3 12  1  0
  5 13  1  0
  6 14  1  0
  7 15  1  0
  7 16  1  0
M  END
