
     RDKit          3D

 19 21  0  0  0  0  0  0  0  0999 V2000
    2.4562    0.1741    0.2890 O   0  0  0  0  0  0  0  0  0  0  0  0
    1.7123   -0.2298   -0.8010 C   0  0  0  0  0  0  0  0  0  0  0  0
    0.5669    0.7713   -1.1110 C   0  0  0  0  0  0  0  0  0  0  0  0
    0.0848    1.6234    0.0365 C   0  0  0  0  0  0  0  0  0  0  0  0
   -1.1156    0.8182    0.5225 C   0  0  0  0  0  0  0  0  0  0  0  0
   -0.5545   -0.5844    0.4412 C   0  0  0  0  0  0  0  0  0  0  0  0
   -1.5356   -1.6595    0.7910 C   0  0  0  0  0  0  0  0  0  0  0  0
   -0.3898   -1.3422    1.5665 O   0  0  0  0  0  0  0  0  0  0  0  0
    0.3283   -0.6636   -0.7377 C   0  0  0  0  0  0  0  0  0  0  0  0
    2.4866   -0.4660    1.0217 H   0  0  0  0  0  0  0  0  0  0  0  0
    2.3142   -0.5442   -1.6658 H   0  0  0  0  0  0  0  0  0  0  0  0
    0.5180    1.1185   -2.1392 H   0  0  0  0  0  0  0  0  0  0  0  0
    0.7850    1.6754    0.8774 H   0  0  0  0  0  0  0  0  0  0  0  0
   -0.2153    2.6311   -0.2483 H   0  0  0  0  0  0  0  0  0  0  0  0
   -1.4281    1.0943    1.5368 H   0  0  0  0  0  0  0  0  0  0  0  0
   -1.9644    0.8681   -0.1719 H   0  0  0  0  0  0  0  0  0  0  0  0
   -1.4968   -2.5456    0.1466 H   0  0  0  0  0  0  0  0  0  0  0  0
   -2.5243   -1.3732    1.1864 H   0  0  0  0  0  0  0  0  0  0  0  0
   -0.0280   -1.3658   -1.5407 H   0  0  0  0  0  0  0  0  0  0  0  0
  1  2  1  0
  2  3  1  0
  3  4  1  0
  4  5  1  0
  5  6  1  0
  6  7  1  0
  7  8  1  0
  6  9  1  0
  9  2  1  0
  9  3  1  0
  8  6  1  0
  1 10  1  0
  2 11  1  0
  3 12  1  0
  4 13  1  0
  4 14  1  0
  5 15  1  0
  5 16  1  0
  7 17  1  0
  7 18  1  0
  9 19  1  0
M  END
