
     RDKit          3D

 15 15  0  0  0  0  0  0  0  0999 V2000
    2.0985    0.3644   -0.0340 O   0  0  0  0  0  0  0  0  0  0  0  0
    0.7970    0.3178    0.4408 C   0  0  0  0  0  0  0  0  0  0  0  0
   -0.0071    1.4926    0.0044 C   0  0  0  0  0  0  0  0  0  0  0  0
   -1.2459    1.0961   -0.2543 C   0  0  0  0  0  0  0  0  0  0  0  0
   -1.3741   -0.3685   -0.0143 C   0  0  0  0  0  0  0  0  0  0  0  0
    0.0799   -0.7913   -0.2862 C   0  0  0  0  0  0  0  0  0  0  0  0
    0.3569   -2.0399    0.1750 O   0  0  0  0  0  0  0  0  0  0  0  0
    2.7419    0.1351    0.6987 H   0  0  0  0  0  0  0  0  0  0  0  0
    0.7330    0.2137    1.5401 H   0  0  0  0  0  0  0  0  0  0  0  0
    0.3718    2.5001   -0.0827 H   0  0  0  0  0  0  0  0  0  0  0  0
   -2.0608    1.7201   -0.5903 H   0  0  0  0  0  0  0  0  0  0  0  0
   -1.9857   -0.8822   -0.7545 H   0  0  0  0  0  0  0  0  0  0  0  0
   -1.6505   -0.5951    1.0402 H   0  0  0  0  0  0  0  0  0  0  0  0
    0.2410   -0.6469   -1.3710 H   0  0  0  0  0  0  0  0  0  0  0  0
    0.9041   -2.5159   -0.5117 H   0  0  0  0  0  0  0  0  0  0  0  0
  1  2  1  0
  2  3  1  0
  3  4  2  0
  4  5  1  0
  5  6  1  0
  6  7  1  0
  6  2  1  0
  1  8  1  0
  2  9  1  0
  3 10  1  0
  4 11  1  0
  5 12  1  0
  5 13  1  0
  6 14  1  0
  7 15  1  0
M  END
