
     RDKit          3D

 19 21  0  0  0  0  0  0  0  0999 V2000
   -0.0508   -1.7828    1.2333 O   0  0  0  0  0  0  0  0  0  0  0  0
   -0.4795   -0.5623    0.7839 C   0  0  0  0  0  0  0  0  0  0  0  0
   -1.6820   -0.6077   -0.1033 C   0  0  0  0  0  0  0  0  0  0  0  0
   -1.6312    0.7005   -0.8665 C   0  0  0  0  0  0  0  0  0  0  0  0
   -0.8532    0.6691   -2.0096 O   0  0  0  0  0  0  0  0  0  0  0  0
   -0.2115    1.1603   -0.8751 C   0  0  0  0  0  0  0  0  0  0  0  0
    0.5356    0.2187    0.0181 C   0  0  0  0  0  0  0  0  0  0  0  0
    1.7284    0.6797    0.7962 C   0  0  0  0  0  0  0  0  0  0  0  0
    1.8532   -0.3114   -0.3484 C   0  0  0  0  0  0  0  0  0  0  0  0
   -0.2400   -2.5410    0.6519 H   0  0  0  0  0  0  0  0  0  0  0  0
   -0.7450    0.0478    1.6936 H   0  0  0  0  0  0  0  0  0  0  0  0
   -2.6465   -0.6151    0.4423 H   0  0  0  0  0  0  0  0  0  0  0  0
   -1.6691   -1.4238   -0.8424 H   0  0  0  0  0  0  0  0  0  0  0  0
   -2.4608    1.4204   -0.7637 H   0  0  0  0  0  0  0  0  0  0  0  0
    0.0229    2.2472   -0.8750 H   0  0  0  0  0  0  0  0  0  0  0  0
    2.0436    1.7403    0.6128 H   0  0  0  0  0  0  0  0  0  0  0  0
    1.9479    0.2264    1.7878 H   0  0  0  0  0  0  0  0  0  0  0  0
    2.3853    0.0945   -1.2206 H   0  0  0  0  0  0  0  0  0  0  0  0
    2.1528   -1.3605   -0.1153 H   0  0  0  0  0  0  0  0  0  0  0  0
  1  2  1  0
  2  3  1  0
  3  4  1  0
  4  5  1  0
  5  6  1  0
  6  7  1  0
  7  8  1  0
  8  9  1  0
  7  2  1  0
  6  4  1  0
  9  7  1  0
  1 10  1  0
  2 11  1  0
  3 12  1  0
  3 13  1  0
  4 14  1  0
  6 15  1  0
  8 16  1  0
  8 17  1  0
  9 18  1  0
  9 19  1  0
M  END
