
     RDKit          3D

 17 19  0  0  0  0  0  0  0  0999 V2000
    0.0137    2.0181    0.3816 O   0  0  0  0  0  0  0  0  0  0  0  0
    0.8237    0.9539   -0.0060 C   0  0  0  0  0  0  0  0  0  0  0  0
    0.3159   -0.3216    0.6060 C   0  0  0  0  0  0  0  0  0  0  0  0
    0.8484   -1.0161   -0.6116 C   0  0  0  0  0  0  0  0  0  0  0  0
    2.1823   -1.1523   -0.7518 O   0  0  0  0  0  0  0  0  0  0  0  0
    0.1945    0.2227   -1.1613 C   0  0  0  0  0  0  0  0  0  0  0  0
   -0.8965   -0.0890   -0.2067 C   0  0  0  0  0  0  0  0  0  0  0  0
   -2.1047   -0.6599   -0.3044 C   0  0  0  0  0  0  0  0  0  0  0  0
   -1.9042    0.7551    0.1168 O   0  0  0  0  0  0  0  0  0  0  0  0
    0.3315    2.8823    0.0602 H   0  0  0  0  0  0  0  0  0  0  0  0
    1.8858    1.1249   -0.0290 H   0  0  0  0  0  0  0  0  0  0  0  0
    0.4045   -0.6110    1.5615 H   0  0  0  0  0  0  0  0  0  0  0  0
    0.3030   -1.9583   -0.7971 H   0  0  0  0  0  0  0  0  0  0  0  0
    2.7627   -0.7151   -0.1168 H   0  0  0  0  0  0  0  0  0  0  0  0
    0.1495    0.5154   -2.1150 H   0  0  0  0  0  0  0  0  0  0  0  0
   -2.7130   -0.6803   -1.2521 H   0  0  0  0  0  0  0  0  0  0  0  0
   -2.5971   -1.2687    0.4871 H   0  0  0  0  0  0  0  0  0  0  0  0
  1  2  1  0
  2  3  1  0
  3  4  1  0
  4  5  1  0
  4  6  1  0
  6  7  1  0
  7  8  1  0
  8  9  1  0
  6  2  1  0
  9  7  1  0
  7  3  1  0
  1 10  1  0
  2 11  1  0
  3 12  1  0
  4 13  1  0
  5 14  1  0
  6 15  1  0
  8 16  1  0
  8 17  1  0
M  END
