
     RDKit          3D

 12 13  0  0  0  0  0  0  0  0999 V2000
   -1.3771    0.8647   -0.4461 O   0  0  0  0  0  0  0  0  0  0  0  0
   -0.8234   -0.3090    0.0350 C   0  0  0  0  0  0  0  0  0  0  0  0
    0.4700   -0.7398   -0.5868 C   0  0  0  0  0  0  0  0  0  0  0  0
    1.0309    0.5668   -0.1445 C   0  0  0  0  0  0  0  0  0  0  0  0
    0.2695   -0.0292    1.0082 C   0  0  0  0  0  0  0  0  0  0  0  0
    0.8359   -1.2363    0.6556 O   0  0  0  0  0  0  0  0  0  0  0  0
   -2.3392    0.8012   -0.6031 H   0  0  0  0  0  0  0  0  0  0  0  0
   -1.4996   -1.1329    0.2407 H   0  0  0  0  0  0  0  0  0  0  0  0
    0.5885   -1.1970   -1.4761 H   0  0  0  0  0  0  0  0  0  0  0  0
    2.1041    0.6240    0.0407 H   0  0  0  0  0  0  0  0  0  0  0  0
    0.5533    1.4229   -0.6554 H   0  0  0  0  0  0  0  0  0  0  0  0
    0.1872    0.3644    1.9319 H   0  0  0  0  0  0  0  0  0  0  0  0
  1  2  1  0
  2  3  1  0
  3  4  1  0
  4  5  1  0
  5  6  1  0
  5  2  1  0
  6  3  1  0
  1  7  1  0
  2  8  1  0
  3  9  1  0
  4 10  1  0
  4 11  1  0
  5 12  1  0
M  END
