
     RDKit          3D

 18 19  0  0  0  0  0  0  0  0999 V2000
   -1.7556   -0.7585   -1.1855 O   0  0  0  0  0  0  0  0  0  0  0  0
   -1.3447   -0.2725    0.0191 C   0  0  0  0  0  0  0  0  0  0  0  0
   -0.8223    1.1429   -0.0246 C   0  0  0  0  0  0  0  0  0  0  0  0
    0.5458    0.9861    0.6087 C   0  0  0  0  0  0  0  0  0  0  0  0
    1.4827    0.2980   -0.3499 C   0  0  0  0  0  0  0  0  0  0  0  0
    0.9929   -1.1314   -0.2967 C   0  0  0  0  0  0  0  0  0  0  0  0
   -0.1917   -1.0203    0.6309 C   0  0  0  0  0  0  0  0  0  0  0  0
    0.2902   -0.0455    1.5402 O   0  0  0  0  0  0  0  0  0  0  0  0
   -1.8334   -0.0930   -1.8932 H   0  0  0  0  0  0  0  0  0  0  0  0
   -2.1739   -0.2938    0.7503 H   0  0  0  0  0  0  0  0  0  0  0  0
   -1.4030    1.8318    0.6416 H   0  0  0  0  0  0  0  0  0  0  0  0
   -0.7826    1.5677   -1.0379 H   0  0  0  0  0  0  0  0  0  0  0  0
    0.9332    1.8860    1.0627 H   0  0  0  0  0  0  0  0  0  0  0  0
    1.4735    0.7298   -1.3568 H   0  0  0  0  0  0  0  0  0  0  0  0
    2.5145    0.4059    0.0762 H   0  0  0  0  0  0  0  0  0  0  0  0
    0.7720   -1.5671   -1.2641 H   0  0  0  0  0  0  0  0  0  0  0  0
    1.7681   -1.7163    0.2476 H   0  0  0  0  0  0  0  0  0  0  0  0
   -0.4659   -1.9498    1.1236 H   0  0  0  0  0  0  0  0  0  0  0  0
  1  2  1  0
  2  3  1  0
  3  4  1  0
  4  5  1  0
  5  6  1  0
  6  7  1  0
  7  8  1  0
  7  2  1  0
  8  4  1  0
  1  9  1  0
  2 10  1  0
  3 11  1  0
  3 12  1  0
  4 13  1  0
  5 14  1  0
  5 15  1  0
  6 16  1  0
  6 17  1  0
  7 18  1  0
M  END
