
     RDKit          3D

 21 23  0  0  0  0  0  0  0  0999 V2000
   -2.5008   -0.6129    1.0952 O   0  0  0  0  0  0  0  0  0  0  0  0
   -1.5419   -0.4432    0.0671 C   0  0  0  0  0  0  0  0  0  0  0  0
   -0.3958   -1.3323    0.3834 C   0  0  0  0  0  0  0  0  0  0  0  0
    0.8819   -1.0013   -0.2970 C   0  0  0  0  0  0  0  0  0  0  0  0
    1.8046   -0.2458    0.6589 C   0  0  0  0  0  0  0  0  0  0  0  0
    1.4433    1.0396    0.0163 C   0  0  0  0  0  0  0  0  0  0  0  0
    0.1257    1.3271   -0.5668 C   0  0  0  0  0  0  0  0  0  0  0  0
   -1.1523    1.0102    0.1100 C   0  0  0  0  0  0  0  0  0  0  0  0
    0.8583    0.2031   -1.1617 C   0  0  0  0  0  0  0  0  0  0  0  0
   -3.0259    0.2368    1.1924 H   0  0  0  0  0  0  0  0  0  0  0  0
   -2.0574   -0.7364   -0.8624 H   0  0  0  0  0  0  0  0  0  0  0  0
   -0.2629   -1.3184    1.5061 H   0  0  0  0  0  0  0  0  0  0  0  0
   -0.7045   -2.3981    0.1722 H   0  0  0  0  0  0  0  0  0  0  0  0
    1.3649   -1.8596   -0.8114 H   0  0  0  0  0  0  0  0  0  0  0  0
    1.5657   -0.3911    1.7176 H   0  0  0  0  0  0  0  0  0  0  0  0
    2.8627   -0.5949    0.4771 H   0  0  0  0  0  0  0  0  0  0  0  0
    2.3109    1.6921   -0.2386 H   0  0  0  0  0  0  0  0  0  0  0  0
    0.0938    2.2521   -1.2152 H   0  0  0  0  0  0  0  0  0  0  0  0
   -1.1036    1.3172    1.1951 H   0  0  0  0  0  0  0  0  0  0  0  0
   -2.0024    1.5799   -0.3361 H   0  0  0  0  0  0  0  0  0  0  0  0
    1.4358    0.2760   -2.0854 H   0  0  0  0  0  0  0  0  0  0  0  0
  1  2  1  0
  2  3  1  0
  3  4  1  0
  4  5  1  0
  5  6  1  0
  6  7  1  0
  7  8  1  0
  7  9  1  0
  8  2  1  0
  9  4  1  0
  9  6  1  0
  1 10  1  0
  2 11  1  0
  3 12  1  0
  3 13  1  0
  4 14  1  0
  5 15  1  0
  5 16  1  0
  6 17  1  0
  7 18  1  0
  8 19  1  0
  8 20  1  0
  9 21  1  0
M  END
