
     RDKit          3D

 19 21  0  0  0  0  0  0  0  0999 V2000
   -1.3306    2.3411   -0.3092 O   0  0  0  0  0  0  0  0  0  0  0  0
   -0.6722    1.1423   -0.4309 C   0  0  0  0  0  0  0  0  0  0  0  0
    0.5979    1.0942    0.4254 C   0  0  0  0  0  0  0  0  0  0  0  0
    0.8935   -0.3913    0.3683 C   0  0  0  0  0  0  0  0  0  0  0  0
    2.1337   -0.8698   -0.0016 C   0  0  0  0  0  0  0  0  0  0  0  0
    1.8736   -0.8122    1.3910 O   0  0  0  0  0  0  0  0  0  0  0  0
   -0.4047   -1.0640    0.5428 C   0  0  0  0  0  0  0  0  0  0  0  0
   -1.3152   -1.3586   -0.6196 C   0  0  0  0  0  0  0  0  0  0  0  0
   -1.4312   -0.0399    0.0791 C   0  0  0  0  0  0  0  0  0  0  0  0
   -1.0565    2.7559    0.5385 H   0  0  0  0  0  0  0  0  0  0  0  0
   -0.3636    1.0384   -1.4991 H   0  0  0  0  0  0  0  0  0  0  0  0
    1.3982    1.6799   -0.0503 H   0  0  0  0  0  0  0  0  0  0  0  0
    0.3601    1.4131    1.4597 H   0  0  0  0  0  0  0  0  0  0  0  0
    2.9445   -0.1711   -0.2972 H   0  0  0  0  0  0  0  0  0  0  0  0
    2.3197   -1.9013   -0.4230 H   0  0  0  0  0  0  0  0  0  0  0  0
   -0.6331   -1.6193    1.4977 H   0  0  0  0  0  0  0  0  0  0  0  0
   -0.8921   -1.3338   -1.6544 H   0  0  0  0  0  0  0  0  0  0  0  0
   -2.1505   -2.0539   -0.4238 H   0  0  0  0  0  0  0  0  0  0  0  0
   -2.2715    0.1505    0.7858 H   0  0  0  0  0  0  0  0  0  0  0  0
  1  2  1  0
  2  3  1  0
  3  4  1  0
  4  5  1  0
  5  6  1  0
  4  7  1  0
  7  8  1  0
  8  9  1  0
  9  2  1  0
  6  4  1  0
  9  7  1  0
  1 10  1  0
  2 11  1  0
  3 12  1  0
  3 13  1  0
  5 14  1  0
  5 15  1  0
  7 16  1  0
  8 17  1  0
  8 18  1  0
  9 19  1  0
M  END
