
     RDKit          3D

 19 20  0  0  0  0  0  0  0  0999 V2000
    2.6291    0.1945   -0.2576 O   0  0  0  0  0  0  0  0  0  0  0  0
    1.3580   -0.2630   -0.5030 C   0  0  0  0  0  0  0  0  0  0  0  0
    0.9435   -1.4264    0.3484 C   0  0  0  0  0  0  0  0  0  0  0  0
   -0.3234   -1.2121    0.8069 O   0  0  0  0  0  0  0  0  0  0  0  0
   -0.8015   -0.0252    0.3365 C   0  0  0  0  0  0  0  0  0  0  0  0
   -1.9127   -0.0414   -0.7229 C   0  0  0  0  0  0  0  0  0  0  0  0
   -2.1231    0.4493    0.6971 C   0  0  0  0  0  0  0  0  0  0  0  0
    0.3572    0.8090   -0.0522 C   0  0  0  0  0  0  0  0  0  0  0  0
    0.9581    1.4970    0.9831 O   0  0  0  0  0  0  0  0  0  0  0  0
    3.3017   -0.4790   -0.5153 H   0  0  0  0  0  0  0  0  0  0  0  0
    1.1700   -0.5382   -1.5590 H   0  0  0  0  0  0  0  0  0  0  0  0
    1.7078   -1.5320    1.1518 H   0  0  0  0  0  0  0  0  0  0  0  0
    0.9285   -2.3763   -0.2517 H   0  0  0  0  0  0  0  0  0  0  0  0
   -2.2143   -1.0373   -1.0231 H   0  0  0  0  0  0  0  0  0  0  0  0
   -1.9248    0.7724   -1.4740 H   0  0  0  0  0  0  0  0  0  0  0  0
   -2.3958    1.5068    0.8565 H   0  0  0  0  0  0  0  0  0  0  0  0
   -2.7608   -0.2429    1.3006 H   0  0  0  0  0  0  0  0  0  0  0  0
    0.2021    1.4639   -0.9216 H   0  0  0  0  0  0  0  0  0  0  0  0
    0.9007    2.4807    0.7996 H   0  0  0  0  0  0  0  0  0  0  0  0
  1  2  1  0
  2  3  1  0
  3  4  1  0
  4  5  1  0
  5  6  1  0
  6  7  1  0
  5  8  1  0
  8  9  1  0
  8  2  1  0
  7  5  1  0
  1 10  1  0
  2 11  1  0
  3 12  1  0
  3 13  1  0
  6 14  1  0
  6 15  1  0
  7 16  1  0
  7 17  1  0
  8 18  1  0
  9 19  1  0
M  END
