
     RDKit          3D

 18 19  0  0  0  0  0  0  0  0999 V2000
    0.9210    0.2435    2.2311 O   0  0  0  0  0  0  0  0  0  0  0  0
    0.2940    0.7332    1.1146 C   0  0  0  0  0  0  0  0  0  0  0  0
    1.2102    0.8613   -0.0805 C   0  0  0  0  0  0  0  0  0  0  0  0
    0.8708   -0.3628   -0.8805 C   0  0  0  0  0  0  0  0  0  0  0  0
   -0.5948   -0.6228   -0.6894 C   0  0  0  0  0  0  0  0  0  0  0  0
   -1.0285   -1.9068   -1.0377 O   0  0  0  0  0  0  0  0  0  0  0  0
   -1.5801    0.4686   -0.5646 C   0  0  0  0  0  0  0  0  0  0  0  0
   -0.8794   -0.0826    0.6636 C   0  0  0  0  0  0  0  0  0  0  0  0
    0.7735   -0.7049    2.4144 H   0  0  0  0  0  0  0  0  0  0  0  0
   -0.0820    1.7594    1.3686 H   0  0  0  0  0  0  0  0  0  0  0  0
    0.9176    1.7412   -0.6706 H   0  0  0  0  0  0  0  0  0  0  0  0
    2.2770    0.8502    0.1844 H   0  0  0  0  0  0  0  0  0  0  0  0
    1.1849   -0.3129   -1.9320 H   0  0  0  0  0  0  0  0  0  0  0  0
    1.4172   -1.2207   -0.4234 H   0  0  0  0  0  0  0  0  0  0  0  0
   -0.2909   -2.4051   -1.4867 H   0  0  0  0  0  0  0  0  0  0  0  0
   -1.3521    1.5129   -0.8746 H   0  0  0  0  0  0  0  0  0  0  0  0
   -2.6377    0.1898   -0.6893 H   0  0  0  0  0  0  0  0  0  0  0  0
   -1.4206   -0.7416    1.3527 H   0  0  0  0  0  0  0  0  0  0  0  0
  1  2  1  0
  2  3  1  0
  3  4  1  0
  4  5  1  0
  5  6  1  0
  5  7  1  0
  7  8  1  0
  8  2  1  0
  8  5  1  0
  1  9  1  0
  2 10  1  0
  3 11  1  0
  3 12  1  0
  4 13  1  0
  4 14  1  0
  6 15  1  0
  7 16  1  0
  7 17  1  0
  8 18  1  0
M  END
