
     RDKit          3D

 17 19  0  0  0  0  0  0  0  0999 V2000
    2.0547   -0.0516    0.7270 O   0  0  0  0  0  0  0  0  0  0  0  0
    1.2329    0.2947   -0.3698 C   0  0  0  0  0  0  0  0  0  0  0  0
    0.1919    1.2853    0.0711 C   0  0  0  0  0  0  0  0  0  0  0  0
   -1.1022    0.6381    0.4394 C   0  0  0  0  0  0  0  0  0  0  0  0
   -1.6099   -0.3719   -0.4925 C   0  0  0  0  0  0  0  0  0  0  0  0
   -0.6704   -0.7415   -1.4371 O   0  0  0  0  0  0  0  0  0  0  0  0
    0.4779   -0.9974   -0.7130 C   0  0  0  0  0  0  0  0  0  0  0  0
    0.0537   -1.4805    0.5453 O   0  0  0  0  0  0  0  0  0  0  0  0
   -1.0526   -0.7502    0.8626 C   0  0  0  0  0  0  0  0  0  0  0  0
    2.9792   -0.2211    0.4595 H   0  0  0  0  0  0  0  0  0  0  0  0
    1.8744    0.6310   -1.1785 H   0  0  0  0  0  0  0  0  0  0  0  0
    0.5846    1.7892    0.9900 H   0  0  0  0  0  0  0  0  0  0  0  0
    0.0792    2.1088   -0.6780 H   0  0  0  0  0  0  0  0  0  0  0  0
   -1.8120    1.3031    0.9965 H   0  0  0  0  0  0  0  0  0  0  0  0
   -2.6748   -0.5598   -0.6304 H   0  0  0  0  0  0  0  0  0  0  0  0
    1.1201   -1.7202   -1.2319 H   0  0  0  0  0  0  0  0  0  0  0  0
   -1.7268   -1.1561    1.6399 H   0  0  0  0  0  0  0  0  0  0  0  0
  1  2  1  0
  2  3  1  0
  3  4  1  0
  4  5  1  0
  5  6  1  0
  6  7  1  0
  7  8  1  0
  8  9  1  0
  7  2  1  0
  9  4  1  0
  9  5  1  0
  1 10  1  0
  2 11  1  0
  3 12  1  0
  3 13  1  0
  4 14  1  0
  5 15  1  0
  7 16  1  0
  9 17  1  0
M  END
