
     RDKit          3D

 17 18  0  0  0  0  0  0  0  0999 V2000
   -1.6845   -1.1704   -1.1463 O   0  0  0  0  0  0  0  0  0  0  0  0
   -1.0827   -0.5232   -0.0896 C   0  0  0  0  0  0  0  0  0  0  0  0
   -1.2534    0.9607   -0.1550 C   0  0  0  0  0  0  0  0  0  0  0  0
   -0.1116    1.5603    0.0528 C   0  0  0  0  0  0  0  0  0  0  0  0
    0.9487    0.5579    0.2797 C   0  0  0  0  0  0  0  0  0  0  0  0
    1.6297    0.5981    1.4834 O   0  0  0  0  0  0  0  0  0  0  0  0
    1.3873   -0.2105   -0.8843 C   0  0  0  0  0  0  0  0  0  0  0  0
    0.3734   -0.7999   -0.0264 C   0  0  0  0  0  0  0  0  0  0  0  0
    0.7387   -1.8932    0.7394 O   0  0  0  0  0  0  0  0  0  0  0  0
   -1.9861   -0.5890   -1.8732 H   0  0  0  0  0  0  0  0  0  0  0  0
   -1.5469   -0.8536    0.8652 H   0  0  0  0  0  0  0  0  0  0  0  0
   -2.2032    1.4425   -0.3492 H   0  0  0  0  0  0  0  0  0  0  0  0
    0.0873    2.6247    0.0679 H   0  0  0  0  0  0  0  0  0  0  0  0
    0.9167    0.5340    2.1984 H   0  0  0  0  0  0  0  0  0  0  0  0
    1.1500    0.2281   -1.8972 H   0  0  0  0  0  0  0  0  0  0  0  0
    2.3972   -0.6390   -0.8564 H   0  0  0  0  0  0  0  0  0  0  0  0
    0.2394   -1.8273    1.5908 H   0  0  0  0  0  0  0  0  0  0  0  0
  1  2  1  0
  2  3  1  0
  3  4  2  0
  4  5  1  0
  5  6  1  0
  5  7  1  0
  7  8  1  0
  8  9  1  0
  8  2  1  0
  8  5  1  0
  1 10  1  0
  2 11  1  0
  3 12  1  0
  4 13  1  0
  6 14  1  0
  7 15  1  0
  7 16  1  0
  9 17  1  0
M  END
