
     RDKit          3D

 18 19  0  0  0  0  0  0  0  0999 V2000
    2.2833   -0.4325    1.1394 O   0  0  0  0  0  0  0  0  0  0  0  0
    1.7950   -0.5284   -0.1783 C   0  0  0  0  0  0  0  0  0  0  0  0
    0.4402   -0.9642   -0.4721 C   0  0  0  0  0  0  0  0  0  0  0  0
   -0.6678   -1.0039    0.5258 C   0  0  0  0  0  0  0  0  0  0  0  0
   -1.6979    0.0438    0.0864 C   0  0  0  0  0  0  0  0  0  0  0  0
   -1.0628    1.4126    0.1096 C   0  0  0  0  0  0  0  0  0  0  0  0
    0.2860    1.2892    0.3788 O   0  0  0  0  0  0  0  0  0  0  0  0
    0.8362    0.5000   -0.6480 C   0  0  0  0  0  0  0  0  0  0  0  0
    2.9509    0.3157    1.1030 H   0  0  0  0  0  0  0  0  0  0  0  0
    2.5893   -0.8110   -0.8923 H   0  0  0  0  0  0  0  0  0  0  0  0
    0.2589   -1.5658   -1.3982 H   0  0  0  0  0  0  0  0  0  0  0  0
   -1.1845   -1.9973    0.5075 H   0  0  0  0  0  0  0  0  0  0  0  0
   -0.3542   -0.8407    1.5625 H   0  0  0  0  0  0  0  0  0  0  0  0
   -2.5965   -0.0046    0.7195 H   0  0  0  0  0  0  0  0  0  0  0  0
   -1.9796   -0.2022   -0.9622 H   0  0  0  0  0  0  0  0  0  0  0  0
   -1.1733    1.9364   -0.8603 H   0  0  0  0  0  0  0  0  0  0  0  0
   -1.5066    2.0000    0.9557 H   0  0  0  0  0  0  0  0  0  0  0  0
    0.7836    0.8528   -1.6769 H   0  0  0  0  0  0  0  0  0  0  0  0
  1  2  1  0
  2  3  1  0
  3  4  1  0
  4  5  1  0
  5  6  1  0
  6  7  1  0
  7  8  1  0
  8  2  1  0
  8  3  1  0
  1  9  1  0
  2 10  1  0
  3 11  1  0
  4 12  1  0
  4 13  1  0
  5 14  1  0
  5 15  1  0
  6 16  1  0
  6 17  1  0
  8 18  1  0
M  END
