
     RDKit          3D

 19 20  0  0  0  0  0  0  0  0999 V2000
    1.1197    1.7299   -0.9503 O   0  0  0  0  0  0  0  0  0  0  0  0
    1.0369    0.6753   -0.0648 C   0  0  0  0  0  0  0  0  0  0  0  0
    2.2934   -0.2091   -0.0265 C   0  0  0  0  0  0  0  0  0  0  0  0
    1.4026   -1.2873    0.1816 O   0  0  0  0  0  0  0  0  0  0  0  0
    0.5143   -0.6012   -0.6290 C   0  0  0  0  0  0  0  0  0  0  0  0
   -0.9334   -0.8974   -0.4533 C   0  0  0  0  0  0  0  0  0  0  0  0
   -1.7801    0.1854   -1.1075 C   0  0  0  0  0  0  0  0  0  0  0  0
   -2.2497    0.6333    0.1189 O   0  0  0  0  0  0  0  0  0  0  0  0
   -1.5971   -0.4254    0.7882 C   0  0  0  0  0  0  0  0  0  0  0  0
    1.2235    2.5756   -0.4327 H   0  0  0  0  0  0  0  0  0  0  0  0
    0.7607    0.9224    0.9692 H   0  0  0  0  0  0  0  0  0  0  0  0
    2.9733   -0.0065    0.7969 H   0  0  0  0  0  0  0  0  0  0  0  0
    2.7447   -0.1901   -1.0363 H   0  0  0  0  0  0  0  0  0  0  0  0
    0.8133   -0.7118   -1.6873 H   0  0  0  0  0  0  0  0  0  0  0  0
   -1.1705   -1.9237   -0.7894 H   0  0  0  0  0  0  0  0  0  0  0  0
   -1.1840    0.9981   -1.5943 H   0  0  0  0  0  0  0  0  0  0  0  0
   -2.5817   -0.1940   -1.7728 H   0  0  0  0  0  0  0  0  0  0  0  0
   -2.4013   -1.1440    1.1163 H   0  0  0  0  0  0  0  0  0  0  0  0
   -0.9846   -0.1293    1.6346 H   0  0  0  0  0  0  0  0  0  0  0  0
  1  2  1  0
  2  3  1  0
  3  4  1  0
  4  5  1  0
  5  6  1  0
  6  7  1  0
  7  8  1  0
  8  9  1  0
  5  2  1  0
  9  6  1  0
  1 10  1  0
  2 11  1  0
  3 12  1  0
  3 13  1  0
  5 14  1  0
  6 15  1  0
  7 16  1  0
  7 17  1  0
  9 18  1  0
  9 19  1  0
M  END
