
     RDKit          3D

 19 20  0  0  0  0  0  0  0  0999 V2000
   -1.6903    0.2655    1.2082 O   0  0  0  0  0  0  0  0  0  0  0  0
   -1.6160   -0.0168   -0.1306 C   0  0  0  0  0  0  0  0  0  0  0  0
   -1.1698   -1.4643   -0.3743 C   0  0  0  0  0  0  0  0  0  0  0  0
    0.2043   -0.8858   -0.6908 C   0  0  0  0  0  0  0  0  0  0  0  0
    1.0086   -1.0205    0.4318 O   0  0  0  0  0  0  0  0  0  0  0  0
    2.1181   -0.1537    0.2699 C   0  0  0  0  0  0  0  0  0  0  0  0
    1.5771    1.2254    0.3703 C   0  0  0  0  0  0  0  0  0  0  0  0
    0.4021    1.4969   -0.1640 C   0  0  0  0  0  0  0  0  0  0  0  0
   -0.3795    0.4698   -0.8537 C   0  0  0  0  0  0  0  0  0  0  0  0
   -2.5507    0.7234    1.4672 H   0  0  0  0  0  0  0  0  0  0  0  0
   -2.5627    0.1576   -0.6785 H   0  0  0  0  0  0  0  0  0  0  0  0
   -1.2126   -2.0959    0.5245 H   0  0  0  0  0  0  0  0  0  0  0  0
   -1.6484   -1.9375   -1.2436 H   0  0  0  0  0  0  0  0  0  0  0  0
    0.6251   -1.3192   -1.6249 H   0  0  0  0  0  0  0  0  0  0  0  0
    2.8275   -0.3460    1.0801 H   0  0  0  0  0  0  0  0  0  0  0  0
    2.5225   -0.3741   -0.7458 H   0  0  0  0  0  0  0  0  0  0  0  0
    2.1631    2.0146    0.8923 H   0  0  0  0  0  0  0  0  0  0  0  0
    0.0264    2.5452   -0.0685 H   0  0  0  0  0  0  0  0  0  0  0  0
   -0.6448    0.7154   -1.9142 H   0  0  0  0  0  0  0  0  0  0  0  0
  1  2  1  0
  2  3  1  0
  3  4  1  0
  4  5  1  0
  5  6  1  0
  6  7  1  0
  7  8  2  0
  8  9  1  0
  9  2  1  0
  9  4  1  0
  1 10  1  0
  2 11  1  0
  3 12  1  0
  3 13  1  0
  4 14  1  0
  6 15  1  0
  6 16  1  0
  7 17  1  0
  8 18  1  0
  9 19  1  0
M  END
