
     RDKit          3D

 21 22  0  0  0  0  0  0  0  0999 V2000
   -0.5995   -0.2114    2.0412 O   0  0  0  0  0  0  0  0  0  0  0  0
   -1.0488   -0.5026    0.7813 C   0  0  0  0  0  0  0  0  0  0  0  0
   -0.1548   -1.3466   -0.0860 C   0  0  0  0  0  0  0  0  0  0  0  0
    1.3042   -1.0268    0.0804 C   0  0  0  0  0  0  0  0  0  0  0  0
    1.5975    0.4252    0.1522 C   0  0  0  0  0  0  0  0  0  0  0  0
    0.4306    1.3271   -0.0300 C   0  0  0  0  0  0  0  0  0  0  0  0
   -0.8558    0.5996   -0.2563 C   0  0  0  0  0  0  0  0  0  0  0  0
   -1.9486    1.3860   -0.4472 O   0  0  0  0  0  0  0  0  0  0  0  0
   -0.6469   -0.5175   -1.2802 C   0  0  0  0  0  0  0  0  0  0  0  0
   -1.3407   -0.1045    2.6998 H   0  0  0  0  0  0  0  0  0  0  0  0
   -2.0943   -0.8738    0.7030 H   0  0  0  0  0  0  0  0  0  0  0  0
   -0.3665   -2.4055   -0.1527 H   0  0  0  0  0  0  0  0  0  0  0  0
    1.8196   -1.4353   -0.8384 H   0  0  0  0  0  0  0  0  0  0  0  0
    1.7653   -1.5856    0.9262 H   0  0  0  0  0  0  0  0  0  0  0  0
    2.3785    0.7361   -0.6031 H   0  0  0  0  0  0  0  0  0  0  0  0
    2.0991    0.6334    1.1434 H   0  0  0  0  0  0  0  0  0  0  0  0
    0.5575    2.0402   -0.8876 H   0  0  0  0  0  0  0  0  0  0  0  0
    0.3171    1.9867    0.8671 H   0  0  0  0  0  0  0  0  0  0  0  0
   -1.7629    2.0601   -1.1257 H   0  0  0  0  0  0  0  0  0  0  0  0
   -1.6114   -0.8387   -1.6901 H   0  0  0  0  0  0  0  0  0  0  0  0
    0.1610   -0.3459   -1.9974 H   0  0  0  0  0  0  0  0  0  0  0  0
  1  2  1  0
  2  3  1  0
  3  4  1  0
  4  5  1  0
  5  6  1  0
  6  7  1  0
  7  8  1  0
  7  9  1  0
  7  2  1  0
  9  3  1  0
  1 10  1  0
  2 11  1  0
  3 12  1  0
  4 13  1  0
  4 14  1  0
  5 15  1  0
  5 16  1  0
  6 17  1  0
  6 18  1  0
  8 19  1  0
  9 20  1  0
  9 21  1  0
M  END
