
     RDKit          3D

 18 19  0  0  0  0  0  0  0  0999 V2000
    2.7580    0.1351   -0.7909 O   0  0  0  0  0  0  0  0  0  0  0  0
    1.6600   -0.1892   -0.0376 C   0  0  0  0  0  0  0  0  0  0  0  0
    0.7192   -1.1078   -0.6911 C   0  0  0  0  0  0  0  0  0  0  0  0
   -0.5138   -0.8545   -0.3175 C   0  0  0  0  0  0  0  0  0  0  0  0
   -1.9725   -0.8117   -0.0926 C   0  0  0  0  0  0  0  0  0  0  0  0
   -1.7707    0.7179   -0.0173 C   0  0  0  0  0  0  0  0  0  0  0  0
   -0.4859    0.3076    0.6653 C   0  0  0  0  0  0  0  0  0  0  0  0
    0.7675    1.0324    0.2371 C   0  0  0  0  0  0  0  0  0  0  0  0
    3.5688   -0.0913   -0.2351 H   0  0  0  0  0  0  0  0  0  0  0  0
    1.9076   -0.6076    0.9590 H   0  0  0  0  0  0  0  0  0  0  0  0
    1.0589   -1.8933   -1.3981 H   0  0  0  0  0  0  0  0  0  0  0  0
   -2.2162   -1.1552    0.9335 H   0  0  0  0  0  0  0  0  0  0  0  0
   -2.6210   -1.1430   -0.8943 H   0  0  0  0  0  0  0  0  0  0  0  0
   -2.5066    1.2369    0.5910 H   0  0  0  0  0  0  0  0  0  0  0  0
   -1.5274    1.1497   -1.0080 H   0  0  0  0  0  0  0  0  0  0  0  0
   -0.5618    0.0156    1.7094 H   0  0  0  0  0  0  0  0  0  0  0  0
    0.5653    1.6074   -0.6646 H   0  0  0  0  0  0  0  0  0  0  0  0
    1.1705    1.6509    1.0518 H   0  0  0  0  0  0  0  0  0  0  0  0
  1  2  1  0
  2  3  1  0
  3  4  2  0
  4  5  1  0
  5  6  1  0
  6  7  1  0
  7  8  1  0
  8  2  1  0
  7  4  1  0
  1  9  1  0
  2 10  1  0
  3 11  1  0
  5 12  1  0
  5 13  1  0
  6 14  1  0
  6 15  1  0
  7 16  1  0
  8 17  1  0
  8 18  1  0
M  END
