
     RDKit          3D

 21 21  0  0  0  0  0  0  0  0999 V2000
   -1.8262   -0.0527    1.2981 O   0  0  0  0  0  0  0  0  0  0  0  0
   -1.7541    0.2771   -0.0548 C   0  0  0  0  0  0  0  0  0  0  0  0
   -0.8246    1.3911   -0.3229 C   0  0  0  0  0  0  0  0  0  0  0  0
    0.4464    1.6648   -0.0923 C   0  0  0  0  0  0  0  0  0  0  0  0
    1.6124    1.0358    0.5401 C   0  0  0  0  0  0  0  0  0  0  0  0
    1.9910   -0.2830   -0.0979 C   0  0  0  0  0  0  0  0  0  0  0  0
    1.0378   -1.3644    0.2300 C   0  0  0  0  0  0  0  0  0  0  0  0
   -0.2241   -1.5935   -0.0805 C   0  0  0  0  0  0  0  0  0  0  0  0
   -1.2923   -0.9393   -0.8686 C   0  0  0  0  0  0  0  0  0  0  0  0
   -2.7406   -0.3810    1.5492 H   0  0  0  0  0  0  0  0  0  0  0  0
   -2.7808    0.4868   -0.3891 H   0  0  0  0  0  0  0  0  0  0  0  0
   -1.3276    2.1912   -0.8485 H   0  0  0  0  0  0  0  0  0  0  0  0
    0.6963    2.6413   -0.4880 H   0  0  0  0  0  0  0  0  0  0  0  0
    2.5072    1.6809    0.4942 H   0  0  0  0  0  0  0  0  0  0  0  0
    1.4505    0.8130    1.6284 H   0  0  0  0  0  0  0  0  0  0  0  0
    2.9811   -0.5637    0.3330 H   0  0  0  0  0  0  0  0  0  0  0  0
    2.1686   -0.1768   -1.1936 H   0  0  0  0  0  0  0  0  0  0  0  0
    1.4430   -2.1594    0.8676 H   0  0  0  0  0  0  0  0  0  0  0  0
   -0.5708   -2.5117    0.3638 H   0  0  0  0  0  0  0  0  0  0  0  0
   -0.8714   -0.5220   -1.8180 H   0  0  0  0  0  0  0  0  0  0  0  0
   -2.1218   -1.6346   -1.0502 H   0  0  0  0  0  0  0  0  0  0  0  0
  1  2  1  0
  2  3  1  0
  3  4  2  3
  4  5  1  0
  5  6  1  0
  6  7  1  0
  7  8  2  3
  8  9  1  0
  9  2  1  0
  1 10  1  0
  2 11  1  0
  3 12  1  0
  4 13  1  0
  5 14  1  0
  5 15  1  0
  6 16  1  0
  6 17  1  0
  7 18  1  0
  8 19  1  0
  9 20  1  0
  9 21  1  0
M  END
