
     RDKit          3D

 19 20  0  0  0  0  0  0  0  0999 V2000
   -2.1536   -1.2819   -0.2078 O   0  0  0  0  0  0  0  0  0  0  0  0
   -1.0040   -0.7611    0.3332 C   0  0  0  0  0  0  0  0  0  0  0  0
   -1.1112    0.7774    0.4015 C   0  0  0  0  0  0  0  0  0  0  0  0
    0.3077    1.2606    0.0318 C   0  0  0  0  0  0  0  0  0  0  0  0
    0.3708    1.7300   -1.2513 O   0  0  0  0  0  0  0  0  0  0  0  0
    1.0697    0.0275    0.3096 C   0  0  0  0  0  0  0  0  0  0  0  0
    0.9663   -0.2365    1.7082 O   0  0  0  0  0  0  0  0  0  0  0  0
    1.5213   -1.0516   -0.4553 C   0  0  0  0  0  0  0  0  0  0  0  0
    0.1372   -0.8739   -0.6017 C   0  0  0  0  0  0  0  0  0  0  0  0
   -1.9588   -1.7269   -1.0736 H   0  0  0  0  0  0  0  0  0  0  0  0
   -0.7465   -1.1675    1.3287 H   0  0  0  0  0  0  0  0  0  0  0  0
   -1.7833    1.0987   -0.4055 H   0  0  0  0  0  0  0  0  0  0  0  0
   -1.3826    1.1162    1.4025 H   0  0  0  0  0  0  0  0  0  0  0  0
    0.5863    2.0689    0.7419 H   0  0  0  0  0  0  0  0  0  0  0  0
   -0.5235    2.1264   -1.4845 H   0  0  0  0  0  0  0  0  0  0  0  0
    1.7921    0.1268    2.0867 H   0  0  0  0  0  0  0  0  0  0  0  0
    2.2058   -0.8440   -1.3268 H   0  0  0  0  0  0  0  0  0  0  0  0
    1.8880   -1.9912    0.0464 H   0  0  0  0  0  0  0  0  0  0  0  0
   -0.1816   -0.3977   -1.5839 H   0  0  0  0  0  0  0  0  0  0  0  0
  1  2  1  0
  2  3  1  0
  3  4  1  0
  4  5  1  0
  4  6  1  0
  6  7  1  0
  6  8  1  0
  8  9  1  0
  9  2  1  0
  9  6  1  0
  1 10  1  0
  2 11  1  0
  3 12  1  0
  3 13  1  0
  4 14  1  0
  5 15  1  0
  7 16  1  0
  8 17  1  0
  8 18  1  0
  9 19  1  0
M  END
