
     RDKit          3D

 19 21  0  0  0  0  0  0  0  0999 V2000
    2.0426   -1.4765    0.2667 O   0  0  0  0  0  0  0  0  0  0  0  0
    0.8436   -1.0837   -0.3385 C   0  0  0  0  0  0  0  0  0  0  0  0
   -0.1374   -0.6900    0.7717 C   0  0  0  0  0  0  0  0  0  0  0  0
   -1.5412   -0.7249    0.1949 C   0  0  0  0  0  0  0  0  0  0  0  0
   -1.7623    0.6308   -0.4017 C   0  0  0  0  0  0  0  0  0  0  0  0
   -0.3788    1.2086   -0.5708 C   0  0  0  0  0  0  0  0  0  0  0  0
    0.3459    0.7113    0.5811 C   0  0  0  0  0  0  0  0  0  0  0  0
    0.7995    0.3438   -0.7899 C   0  0  0  0  0  0  0  0  0  0  0  0
    1.9566    0.9437   -1.2209 O   0  0  0  0  0  0  0  0  0  0  0  0
    2.8296   -1.1499   -0.2075 H   0  0  0  0  0  0  0  0  0  0  0  0
    0.4147   -1.8375   -1.0134 H   0  0  0  0  0  0  0  0  0  0  0  0
    0.0135   -1.1694    1.7265 H   0  0  0  0  0  0  0  0  0  0  0  0
   -2.2713   -0.9518    1.0123 H   0  0  0  0  0  0  0  0  0  0  0  0
   -1.5989   -1.5086   -0.6121 H   0  0  0  0  0  0  0  0  0  0  0  0
   -2.3581    0.6310   -1.3153 H   0  0  0  0  0  0  0  0  0  0  0  0
   -2.2642    1.2530    0.3970 H   0  0  0  0  0  0  0  0  0  0  0  0
   -0.3107    2.2313   -0.9289 H   0  0  0  0  0  0  0  0  0  0  0  0
    0.9306    1.2555    1.2906 H   0  0  0  0  0  0  0  0  0  0  0  0
    2.4466    1.3832   -0.4757 H   0  0  0  0  0  0  0  0  0  0  0  0
  1  2  1  0
  2  3  1  0
  3  4  1  0
  4  5  1  0
  5  6  1  0
  6  7  1  0
  7  8  1  0
  8  9  1  0
  8  2  1  0
  7  3  1  0
  8  6  1  0
  1 10  1  0
  2 11  1  0
  3 12  1  0
  4 13  1  0
  4 14  1  0
  5 15  1  0
  5 16  1  0
  6 17  1  0
  7 18  1  0
  9 19  1  0
M  END
