
     RDKit          3D

 21 22  0  0  0  0  0  0  0  0999 V2000
   -2.1856   -0.2799    1.4876 O   0  0  0  0  0  0  0  0  0  0  0  0
   -1.8052    0.3785    0.3246 C   0  0  0  0  0  0  0  0  0  0  0  0
   -2.5843    0.0469   -0.9020 C   0  0  0  0  0  0  0  0  0  0  0  0
   -1.3917   -0.0968   -1.5969 O   0  0  0  0  0  0  0  0  0  0  0  0
   -0.7047   -0.3546   -0.4145 C   0  0  0  0  0  0  0  0  0  0  0  0
    0.5859    0.4067   -0.2923 C   0  0  0  0  0  0  0  0  0  0  0  0
    1.7722   -0.2272   -0.9937 C   0  0  0  0  0  0  0  0  0  0  0  0
    2.5814    0.2448    0.2054 C   0  0  0  0  0  0  0  0  0  0  0  0
    1.2917    0.0132    1.0019 C   0  0  0  0  0  0  0  0  0  0  0  0
   -1.8407   -1.2030    1.4476 H   0  0  0  0  0  0  0  0  0  0  0  0
   -1.5963    1.4618    0.4330 H   0  0  0  0  0  0  0  0  0  0  0  0
   -3.1507   -0.8950   -0.7687 H   0  0  0  0  0  0  0  0  0  0  0  0
   -3.1921    0.9159   -1.2232 H   0  0  0  0  0  0  0  0  0  0  0  0
   -0.5984   -1.4168   -0.1766 H   0  0  0  0  0  0  0  0  0  0  0  0
    0.5330    1.4880   -0.3798 H   0  0  0  0  0  0  0  0  0  0  0  0
    1.6880   -1.3284   -0.9820 H   0  0  0  0  0  0  0  0  0  0  0  0
    2.0500    0.2351   -1.9526 H   0  0  0  0  0  0  0  0  0  0  0  0
    3.4142   -0.4068    0.4956 H   0  0  0  0  0  0  0  0  0  0  0  0
    2.7792    1.3334    0.1933 H   0  0  0  0  0  0  0  0  0  0  0  0
    1.1342    0.7354    1.8248 H   0  0  0  0  0  0  0  0  0  0  0  0
    1.2200   -1.0513    1.2480 H   0  0  0  0  0  0  0  0  0  0  0  0
  1  2  1  0
  2  3  1  0
  3  4  1  0
  4  5  1  0
  5  6  1  0
  6  7  1  0
  7  8  1  0
  8  9  1  0
  5  2  1  0
  9  6  1  0
  1 10  1  0
  2 11  1  0
  3 12  1  0
  3 13  1  0
  5 14  1  0
  6 15  1  0
  7 16  1  0
  7 17  1  0
  8 18  1  0
  8 19  1  0
  9 20  1  0
  9 21  1  0
M  END
