
     RDKit          3D

 21 23  0  0  0  0  0  0  0  0999 V2000
    1.8129    1.4414    0.4567 O   0  0  0  0  0  0  0  0  0  0  0  0
    1.3720    0.6372   -0.5376 C   0  0  0  0  0  0  0  0  0  0  0  0
    1.6411   -0.8574   -0.2775 C   0  0  0  0  0  0  0  0  0  0  0  0
    0.4212   -1.2091    0.5145 C   0  0  0  0  0  0  0  0  0  0  0  0
   -1.0057   -1.2277    0.3880 C   0  0  0  0  0  0  0  0  0  0  0  0
   -1.9031    0.0082    0.6766 C   0  0  0  0  0  0  0  0  0  0  0  0
   -0.9912    1.1702    0.2366 C   0  0  0  0  0  0  0  0  0  0  0  0
   -0.0836    0.6440   -0.8157 C   0  0  0  0  0  0  0  0  0  0  0  0
   -0.3933   -0.8245   -0.7614 C   0  0  0  0  0  0  0  0  0  0  0  0
    1.4664    1.3063    1.3464 H   0  0  0  0  0  0  0  0  0  0  0  0
    1.9709    0.8644   -1.4599 H   0  0  0  0  0  0  0  0  0  0  0  0
    1.7518   -1.4142   -1.2369 H   0  0  0  0  0  0  0  0  0  0  0  0
    2.5320   -1.0479    0.2987 H   0  0  0  0  0  0  0  0  0  0  0  0
    0.5419   -0.5099    1.3951 H   0  0  0  0  0  0  0  0  0  0  0  0
   -1.5862   -2.1516    0.4948 H   0  0  0  0  0  0  0  0  0  0  0  0
   -2.0292    0.1048    1.7730 H   0  0  0  0  0  0  0  0  0  0  0  0
   -2.8281   -0.0298    0.1182 H   0  0  0  0  0  0  0  0  0  0  0  0
   -1.6762    1.8989   -0.2522 H   0  0  0  0  0  0  0  0  0  0  0  0
   -0.5230    1.6674    1.0761 H   0  0  0  0  0  0  0  0  0  0  0  0
   -0.2666    1.0098   -1.8282 H   0  0  0  0  0  0  0  0  0  0  0  0
   -0.2239   -1.4806   -1.6052 H   0  0  0  0  0  0  0  0  0  0  0  0
  1  2  1  0
  2  3  1  0
  3  4  1  0
  4  5  1  0
  5  6  1  0
  6  7  1  0
  7  8  1  0
  8  9  1  0
  8  2  1  0
  9  4  1  0
  9  5  1  0
  1 10  1  0
  2 11  1  0
  3 12  1  0
  3 13  1  0
  4 14  1  0
  5 15  1  0
  6 16  1  0
  6 17  1  0
  7 18  1  0
  7 19  1  0
  8 20  1  0
  9 21  1  0
M  END
