
     RDKit          3D

 18 19  0  0  0  0  0  0  0  0999 V2000
   -1.2134    0.5409   -1.7049 O   0  0  0  0  0  0  0  0  0  0  0  0
   -0.9442    0.4807   -0.3533 C   0  0  0  0  0  0  0  0  0  0  0  0
   -1.5015   -0.7799    0.3231 C   0  0  0  0  0  0  0  0  0  0  0  0
   -0.0683   -1.2526    0.6041 C   0  0  0  0  0  0  0  0  0  0  0  0
    0.4000    0.0406    0.0712 C   0  0  0  0  0  0  0  0  0  0  0  0
    1.5141    0.0639   -0.9014 C   0  0  0  0  0  0  0  0  0  0  0  0
    2.1655    0.9751   -0.0356 O   0  0  0  0  0  0  0  0  0  0  0  0
    1.1589    0.9575    0.9548 C   0  0  0  0  0  0  0  0  0  0  0  0
   -2.0242    1.1164   -1.8360 H   0  0  0  0  0  0  0  0  0  0  0  0
   -1.2996    1.3975    0.1831 H   0  0  0  0  0  0  0  0  0  0  0  0
   -1.9803   -1.4508   -0.3972 H   0  0  0  0  0  0  0  0  0  0  0  0
   -2.0505   -0.5590    1.2502 H   0  0  0  0  0  0  0  0  0  0  0  0
    0.2226   -2.1511   -0.0010 H   0  0  0  0  0  0  0  0  0  0  0  0
    0.0804   -1.4787    1.6673 H   0  0  0  0  0  0  0  0  0  0  0  0
    2.0885   -0.8974   -0.9014 H   0  0  0  0  0  0  0  0  0  0  0  0
    1.3297    0.4506   -1.9097 H   0  0  0  0  0  0  0  0  0  0  0  0
    0.6405    1.9487    1.0509 H   0  0  0  0  0  0  0  0  0  0  0  0
    1.4818    0.5977    1.9358 H   0  0  0  0  0  0  0  0  0  0  0  0
  1  2  1  0
  2  3  1  0
  3  4  1  0
  4  5  1  0
  5  6  1  0
  6  7  1  0
  7  8  1  0
  5  2  1  0
  8  5  1  0
  1  9  1  0
  2 10  1  0
  3 11  1  0
  3 12  1  0
  4 13  1  0
  4 14  1  0
  6 15  1  0
  6 16  1  0
  8 17  1  0
  8 18  1  0
M  END
