
     RDKit          3D

 19 21  0  0  0  0  0  0  0  0999 V2000
   -2.0912    1.4000    0.8576 O   0  0  0  0  0  0  0  0  0  0  0  0
   -0.9348    1.3633    0.0567 C   0  0  0  0  0  0  0  0  0  0  0  0
   -0.8398    0.3699   -1.0461 C   0  0  0  0  0  0  0  0  0  0  0  0
   -1.5526   -0.9283   -0.7757 C   0  0  0  0  0  0  0  0  0  0  0  0
   -0.5369   -1.1866    0.3223 C   0  0  0  0  0  0  0  0  0  0  0  0
   -0.0120    0.2226    0.1495 C   0  0  0  0  0  0  0  0  0  0  0  0
    1.4415    0.5040    0.2127 C   0  0  0  0  0  0  0  0  0  0  0  0
    2.4842   -0.4960    0.3056 C   0  0  0  0  0  0  0  0  0  0  0  0
    2.2399    0.1501   -0.9496 O   0  0  0  0  0  0  0  0  0  0  0  0
   -1.7531    1.5414    1.7914 H   0  0  0  0  0  0  0  0  0  0  0  0
   -0.5106    2.3442   -0.1301 H   0  0  0  0  0  0  0  0  0  0  0  0
   -0.3844    0.5869   -2.0068 H   0  0  0  0  0  0  0  0  0  0  0  0
   -1.5681   -1.6531   -1.5915 H   0  0  0  0  0  0  0  0  0  0  0  0
   -2.5469   -0.7239   -0.3100 H   0  0  0  0  0  0  0  0  0  0  0  0
    0.2196   -1.9570    0.0711 H   0  0  0  0  0  0  0  0  0  0  0  0
   -0.9837   -1.2881    1.3449 H   0  0  0  0  0  0  0  0  0  0  0  0
    1.7001    1.5516    0.5300 H   0  0  0  0  0  0  0  0  0  0  0  0
    2.2080   -1.5865    0.3358 H   0  0  0  0  0  0  0  0  0  0  0  0
    3.4209   -0.2144    0.8322 H   0  0  0  0  0  0  0  0  0  0  0  0
  1  2  1  0
  2  3  1  0
  3  4  1  0
  4  5  1  0
  5  6  1  0
  6  7  1  0
  7  8  1  0
  8  9  1  0
  6  2  1  0
  9  7  1  0
  6  3  1  0
  1 10  1  0
  2 11  1  0
  3 12  1  0
  4 13  1  0
  4 14  1  0
  5 15  1  0
  5 16  1  0
  7 17  1  0
  8 18  1  0
  8 19  1  0
M  END
