
     RDKit          3D

 19 21  0  0  0  0  0  0  0  0999 V2000
    2.2307    1.0858    0.5434 O   0  0  0  0  0  0  0  0  0  0  0  0
    1.5951    0.2673   -0.4189 C   0  0  0  0  0  0  0  0  0  0  0  0
    1.4485   -1.2046    0.0641 C   0  0  0  0  0  0  0  0  0  0  0  0
    0.3266   -0.2906   -0.0224 C   0  0  0  0  0  0  0  0  0  0  0  0
   -0.4262    0.1889    1.2304 C   0  0  0  0  0  0  0  0  0  0  0  0
   -1.8146    0.1295    0.6199 C   0  0  0  0  0  0  0  0  0  0  0  0
   -1.6914    0.7274   -0.7421 C   0  0  0  0  0  0  0  0  0  0  0  0
   -0.8513   -0.5136   -0.9082 C   0  0  0  0  0  0  0  0  0  0  0  0
   -1.7589   -1.1332   -0.0152 O   0  0  0  0  0  0  0  0  0  0  0  0
    3.0704    1.4542    0.2193 H   0  0  0  0  0  0  0  0  0  0  0  0
    1.8883    0.4236   -1.4636 H   0  0  0  0  0  0  0  0  0  0  0  0
    1.9579   -1.4861    0.9851 H   0  0  0  0  0  0  0  0  0  0  0  0
    1.5302   -1.9745   -0.7537 H   0  0  0  0  0  0  0  0  0  0  0  0
   -0.2511   -0.5640    1.9942 H   0  0  0  0  0  0  0  0  0  0  0  0
   -0.1008    1.2003    1.4695 H   0  0  0  0  0  0  0  0  0  0  0  0
   -2.6558    0.3357    1.2343 H   0  0  0  0  0  0  0  0  0  0  0  0
   -1.1388    1.6681   -0.8408 H   0  0  0  0  0  0  0  0  0  0  0  0
   -2.6186    0.6327   -1.3212 H   0  0  0  0  0  0  0  0  0  0  0  0
   -0.7401   -0.9470   -1.8739 H   0  0  0  0  0  0  0  0  0  0  0  0
  1  2  1  0
  2  3  1  0
  3  4  1  0
  4  5  1  0
  5  6  1  0
  6  7  1  0
  7  8  1  0
  8  9  1  0
  4  2  1  0
  9  6  1  0
  8  4  1  0
  1 10  1  0
  2 11  1  0
  3 12  1  0
  3 13  1  0
  5 14  1  0
  5 15  1  0
  6 16  1  0
  7 17  1  0
  7 18  1  0
  8 19  1  0
M  END
