
     RDKit          3D

 19 20  0  0  0  0  0  0  0  0999 V2000
   -0.9236    1.3333   -1.4280 O   0  0  0  0  0  0  0  0  0  0  0  0
   -1.2829    0.3667   -0.5430 C   0  0  0  0  0  0  0  0  0  0  0  0
   -0.6515    0.3845    0.8169 C   0  0  0  0  0  0  0  0  0  0  0  0
    0.6801    1.0404    0.8736 C   0  0  0  0  0  0  0  0  0  0  0  0
    1.4646    0.8983   -0.2287 O   0  0  0  0  0  0  0  0  0  0  0  0
    1.6102   -0.3789   -0.7031 C   0  0  0  0  0  0  0  0  0  0  0  0
    0.5473   -0.8692   -1.4100 O   0  0  0  0  0  0  0  0  0  0  0  0
   -0.6246   -1.0039   -0.7507 C   0  0  0  0  0  0  0  0  0  0  0  0
   -0.5471   -1.1286    0.7281 C   0  0  0  0  0  0  0  0  0  0  0  0
   -0.3689    2.0560   -1.1016 H   0  0  0  0  0  0  0  0  0  0  0  0
   -2.3852    0.2188   -0.4521 H   0  0  0  0  0  0  0  0  0  0  0  0
   -1.3018    0.7277    1.6463 H   0  0  0  0  0  0  0  0  0  0  0  0
    0.5310    2.1197    1.0666 H   0  0  0  0  0  0  0  0  0  0  0  0
    1.2308    0.6231    1.7627 H   0  0  0  0  0  0  0  0  0  0  0  0
    1.9816   -1.0941    0.0870 H   0  0  0  0  0  0  0  0  0  0  0  0
    2.4785   -0.3347   -1.4292 H   0  0  0  0  0  0  0  0  0  0  0  0
   -1.2906   -1.7475   -1.2318 H   0  0  0  0  0  0  0  0  0  0  0  0
   -1.4759   -1.6311    1.1188 H   0  0  0  0  0  0  0  0  0  0  0  0
    0.3279   -1.5804    1.1779 H   0  0  0  0  0  0  0  0  0  0  0  0
  1  2  1  0
  2  3  1  0
  3  4  1  0
  4  5  1  0
  5  6  1  0
  6  7  1  0
  7  8  1  0
  8  9  1  0
  8  2  1  0
  9  3  1  0
  1 10  1  0
  2 11  1  0
  3 12  1  0
  4 13  1  0
  4 14  1  0
  6 15  1  0
  6 16  1  0
  8 17  1  0
  9 18  1  0
  9 19  1  0
M  END
