
     RDKit          3D

 17 19  0  0  0  0  0  0  0  0999 V2000
   -1.1270    1.6424   -0.2185 O   0  0  0  0  0  0  0  0  0  0  0  0
   -1.0717    0.3639   -0.7184 C   0  0  0  0  0  0  0  0  0  0  0  0
   -1.8763   -0.6659    0.0902 C   0  0  0  0  0  0  0  0  0  0  0  0
   -0.5201   -1.3197    0.3922 C   0  0  0  0  0  0  0  0  0  0  0  0
    0.1132   -1.7567   -0.8172 O   0  0  0  0  0  0  0  0  0  0  0  0
    0.1540   -0.3908   -0.2846 C   0  0  0  0  0  0  0  0  0  0  0  0
    1.5053    0.1615   -0.3432 C   0  0  0  0  0  0  0  0  0  0  0  0
    2.3458    0.5288    0.7745 C   0  0  0  0  0  0  0  0  0  0  0  0
    1.5184    1.5418    0.2008 O   0  0  0  0  0  0  0  0  0  0  0  0
   -2.0344    1.9480    0.0072 H   0  0  0  0  0  0  0  0  0  0  0  0
   -1.2024    0.2548   -1.8205 H   0  0  0  0  0  0  0  0  0  0  0  0
   -2.5316   -1.3023   -0.5433 H   0  0  0  0  0  0  0  0  0  0  0  0
   -2.3466   -0.2480    0.9875 H   0  0  0  0  0  0  0  0  0  0  0  0
   -0.4187   -1.9837    1.2365 H   0  0  0  0  0  0  0  0  0  0  0  0
    1.9945    0.1390   -1.3592 H   0  0  0  0  0  0  0  0  0  0  0  0
    3.4079    0.7463    0.5969 H   0  0  0  0  0  0  0  0  0  0  0  0
    2.0897    0.3407    1.8191 H   0  0  0  0  0  0  0  0  0  0  0  0
  1  2  1  0
  2  3  1  0
  3  4  1  0
  4  5  1  0
  5  6  1  0
  6  7  1  0
  7  8  1  0
  8  9  1  0
  6  2  1  0
  9  7  1  0
  6  4  1  0
  1 10  1  0
  2 11  1  0
  3 12  1  0
  3 13  1  0
  4 14  1  0
  7 15  1  0
  8 16  1  0
  8 17  1  0
M  END
