
     RDKit          3D

 16 18  0  0  0  0  0  0  0  0999 V2000
    1.8343   -0.7445    1.2031 O   0  0  0  0  0  0  0  0  0  0  0  0
    0.8572    0.1838    0.8460 C   0  0  0  0  0  0  0  0  0  0  0  0
    1.4390    0.9992   -0.3196 C   0  0  0  0  0  0  0  0  0  0  0  0
    1.9309    0.2318   -1.3290 O   0  0  0  0  0  0  0  0  0  0  0  0
    0.5703    0.1652   -1.2731 C   0  0  0  0  0  0  0  0  0  0  0  0
   -0.1928   -0.2273   -0.0753 C   0  0  0  0  0  0  0  0  0  0  0  0
   -1.2653   -1.1409    0.0422 C   0  0  0  0  0  0  0  0  0  0  0  0
   -1.5864    0.3339    0.1158 C   0  0  0  0  0  0  0  0  0  0  0  0
    1.5125   -1.6800    1.1640 H   0  0  0  0  0  0  0  0  0  0  0  0
    0.4990    0.7833    1.6877 H   0  0  0  0  0  0  0  0  0  0  0  0
    1.2422    2.0584   -0.3847 H   0  0  0  0  0  0  0  0  0  0  0  0
    0.0176    0.7037   -2.0721 H   0  0  0  0  0  0  0  0  0  0  0  0
   -1.6668   -1.6224   -0.8947 H   0  0  0  0  0  0  0  0  0  0  0  0
   -1.4468   -1.7264    0.9646 H   0  0  0  0  0  0  0  0  0  0  0  0
   -1.7707    0.8166    1.0855 H   0  0  0  0  0  0  0  0  0  0  0  0
   -1.9744    0.8655   -0.7603 H   0  0  0  0  0  0  0  0  0  0  0  0
  1  2  1  0
  2  3  1  0
  3  4  1  0
  4  5  1  0
  5  6  1  0
  6  7  1  0
  7  8  1  0
  6  2  1  0
  5  3  1  0
  8  6  1  0
  1  9  1  0
  2 10  1  0
  3 11  1  0
  5 12  1  0
  7 13  1  0
  7 14  1  0
  8 15  1  0
  8 16  1  0
M  END
