
     RDKit          3D

 21 22  0  0  0  0  0  0  0  0999 V2000
   -0.9519    1.0762   -1.5154 O   0  0  0  0  0  0  0  0  0  0  0  0
   -0.5066    1.1020   -0.2012 C   0  0  0  0  0  0  0  0  0  0  0  0
   -1.5288    0.4602    0.7456 C   0  0  0  0  0  0  0  0  0  0  0  0
   -1.3094   -0.8748    0.9335 O   0  0  0  0  0  0  0  0  0  0  0  0
   -0.9862   -1.5835   -0.2027 C   0  0  0  0  0  0  0  0  0  0  0  0
    0.3040   -1.0924   -0.8498 C   0  0  0  0  0  0  0  0  0  0  0  0
    0.6990    0.1672   -0.1358 C   0  0  0  0  0  0  0  0  0  0  0  0
    1.4049   -0.0261    1.1603 C   0  0  0  0  0  0  0  0  0  0  0  0
    2.0512    0.6786   -0.0655 C   0  0  0  0  0  0  0  0  0  0  0  0
   -1.7461    1.6703   -1.6334 H   0  0  0  0  0  0  0  0  0  0  0  0
   -0.2184    2.1043    0.1149 H   0  0  0  0  0  0  0  0  0  0  0  0
   -1.3388    0.9674    1.7380 H   0  0  0  0  0  0  0  0  0  0  0  0
   -2.5509    0.7399    0.4617 H   0  0  0  0  0  0  0  0  0  0  0  0
   -0.7642   -2.6367    0.1359 H   0  0  0  0  0  0  0  0  0  0  0  0
   -1.8123   -1.6724   -0.9180 H   0  0  0  0  0  0  0  0  0  0  0  0
    1.1042   -1.8257   -0.8299 H   0  0  0  0  0  0  0  0  0  0  0  0
    0.0383   -0.8499   -1.9089 H   0  0  0  0  0  0  0  0  0  0  0  0
    1.8408   -1.0318    1.3868 H   0  0  0  0  0  0  0  0  0  0  0  0
    1.1897    0.6181    2.0391 H   0  0  0  0  0  0  0  0  0  0  0  0
    2.1573    1.7958    0.0607 H   0  0  0  0  0  0  0  0  0  0  0  0
    2.9243    0.2135   -0.5160 H   0  0  0  0  0  0  0  0  0  0  0  0
  1  2  1  0
  2  3  1  0
  3  4  1  0
  4  5  1  0
  5  6  1  0
  6  7  1  0
  7  8  1  0
  8  9  1  0
  7  2  1  0
  9  7  1  0
  1 10  1  0
  2 11  1  0
  3 12  1  0
  3 13  1  0
  5 14  1  0
  5 15  1  0
  6 16  1  0
  6 17  1  0
  8 18  1  0
  8 19  1  0
  9 20  1  0
  9 21  1  0
M  END
