
     RDKit          3D

 21 21  0  0  0  0  0  0  0  0999 V2000
   -1.0304   -0.3600    1.3159 O   0  0  0  0  0  0  0  0  0  0  0  0
   -1.2720   -0.2607   -0.0337 C   0  0  0  0  0  0  0  0  0  0  0  0
   -1.1094    1.1794   -0.4367 C   0  0  0  0  0  0  0  0  0  0  0  0
    0.3151    1.5908   -0.6709 C   0  0  0  0  0  0  0  0  0  0  0  0
    1.2627    1.1219    0.3302 C   0  0  0  0  0  0  0  0  0  0  0  0
    1.6690   -0.0338    0.8480 C   0  0  0  0  0  0  0  0  0  0  0  0
    1.2501   -1.4476    0.5558 C   0  0  0  0  0  0  0  0  0  0  0  0
    0.6886   -1.5652   -0.6498 O   0  0  0  0  0  0  0  0  0  0  0  0
   -0.5714   -1.2310   -0.8992 C   0  0  0  0  0  0  0  0  0  0  0  0
   -1.7856   -0.6828    1.8481 H   0  0  0  0  0  0  0  0  0  0  0  0
   -2.3816   -0.4684   -0.1517 H   0  0  0  0  0  0  0  0  0  0  0  0
   -1.5897    1.7880    0.3712 H   0  0  0  0  0  0  0  0  0  0  0  0
   -1.7201    1.3293   -1.3505 H   0  0  0  0  0  0  0  0  0  0  0  0
    0.5697    1.2450   -1.7169 H   0  0  0  0  0  0  0  0  0  0  0  0
    0.3253    2.6998   -0.7396 H   0  0  0  0  0  0  0  0  0  0  0  0
    1.8013    1.9367    0.7991 H   0  0  0  0  0  0  0  0  0  0  0  0
    2.4358    0.0540    1.6148 H   0  0  0  0  0  0  0  0  0  0  0  0
    2.2281   -2.0231    0.5215 H   0  0  0  0  0  0  0  0  0  0  0  0
    0.7184   -1.9065    1.4091 H   0  0  0  0  0  0  0  0  0  0  0  0
   -0.6152   -0.7921   -1.9457 H   0  0  0  0  0  0  0  0  0  0  0  0
   -1.1885   -2.1737   -1.0190 H   0  0  0  0  0  0  0  0  0  0  0  0
  1  2  1  0
  2  3  1  0
  3  4  1  0
  4  5  1  0
  5  6  2  3
  6  7  1  0
  7  8  1  0
  8  9  1  0
  9  2  1  0
  1 10  1  0
  2 11  1  0
  3 12  1  0
  3 13  1  0
  4 14  1  0
  4 15  1  0
  5 16  1  0
  6 17  1  0
  7 18  1  0
  7 19  1  0
  9 20  1  0
  9 21  1  0
M  END
