
     RDKit          3D

 19 20  0  0  0  0  0  0  0  0999 V2000
   -0.2900    1.6430   -0.8543 O   0  0  0  0  0  0  0  0  0  0  0  0
   -0.4597    0.9106    0.3110 C   0  0  0  0  0  0  0  0  0  0  0  0
   -1.8817    0.4600    0.5192 C   0  0  0  0  0  0  0  0  0  0  0  0
   -1.7696   -0.9031    1.0578 C   0  0  0  0  0  0  0  0  0  0  0  0
   -0.5419   -1.3919    0.9486 C   0  0  0  0  0  0  0  0  0  0  0  0
    0.2904   -0.3760    0.3139 C   0  0  0  0  0  0  0  0  0  0  0  0
    1.2293   -0.7704   -0.7499 C   0  0  0  0  0  0  0  0  0  0  0  0
    1.7549   -0.2700    0.5762 C   0  0  0  0  0  0  0  0  0  0  0  0
    2.3232    0.9987    0.5110 O   0  0  0  0  0  0  0  0  0  0  0  0
   -0.9333    2.3709   -0.8828 H   0  0  0  0  0  0  0  0  0  0  0  0
   -0.1623    1.4888    1.2103 H   0  0  0  0  0  0  0  0  0  0  0  0
   -2.4860    0.5544   -0.3817 H   0  0  0  0  0  0  0  0  0  0  0  0
   -2.3852    1.0786    1.3178 H   0  0  0  0  0  0  0  0  0  0  0  0
   -2.6275   -1.4437    1.5012 H   0  0  0  0  0  0  0  0  0  0  0  0
   -0.1975   -2.3667    1.2664 H   0  0  0  0  0  0  0  0  0  0  0  0
    1.3879   -1.8689   -0.8899 H   0  0  0  0  0  0  0  0  0  0  0  0
    1.3991   -0.1861   -1.6633 H   0  0  0  0  0  0  0  0  0  0  0  0
    2.1587   -0.9887    1.3122 H   0  0  0  0  0  0  0  0  0  0  0  0
    3.1912    1.0603    0.9478 H   0  0  0  0  0  0  0  0  0  0  0  0
  1  2  1  0
  2  3  1  0
  3  4  1  0
  4  5  2  0
  5  6  1  0
  6  7  1  0
  7  8  1  0
  8  9  1  0
  6  2  1  0
  8  6  1  0
  1 10  1  0
  2 11  1  0
  3 12  1  0
  3 13  1  0
  4 14  1  0
  5 15  1  0
  7 16  1  0
  7 17  1  0
  8 18  1  0
  9 19  1  0
M  END
