
     RDKit          3D

 21 22  0  0  0  0  0  0  0  0999 V2000
   -1.7605    0.8614   -1.0411 O   0  0  0  0  0  0  0  0  0  0  0  0
   -0.5229    0.2814   -1.0152 C   0  0  0  0  0  0  0  0  0  0  0  0
   -0.5347   -1.0845   -0.3021 C   0  0  0  0  0  0  0  0  0  0  0  0
    0.9475   -1.3700   -0.2909 C   0  0  0  0  0  0  0  0  0  0  0  0
    1.5203   -0.0009    0.0861 C   0  0  0  0  0  0  0  0  0  0  0  0
    0.3670    0.9709    0.0080 C   0  0  0  0  0  0  0  0  0  0  0  0
    0.6865    2.2444   -0.2759 O   0  0  0  0  0  0  0  0  0  0  0  0
   -0.4621    0.7676    1.2621 C   0  0  0  0  0  0  0  0  0  0  0  0
   -1.0213   -0.6503    1.0621 C   0  0  0  0  0  0  0  0  0  0  0  0
   -2.3135    0.4962   -1.7627 H   0  0  0  0  0  0  0  0  0  0  0  0
   -0.0426    0.1231   -1.9733 H   0  0  0  0  0  0  0  0  0  0  0  0
   -1.1449   -1.8154   -0.7980 H   0  0  0  0  0  0  0  0  0  0  0  0
    1.2496   -2.1573    0.3940 H   0  0  0  0  0  0  0  0  0  0  0  0
    1.2303   -1.5689   -1.3619 H   0  0  0  0  0  0  0  0  0  0  0  0
    2.3638    0.2715   -0.5707 H   0  0  0  0  0  0  0  0  0  0  0  0
    1.9299   -0.0502    1.1261 H   0  0  0  0  0  0  0  0  0  0  0  0
    1.5178    2.2549   -0.8384 H   0  0  0  0  0  0  0  0  0  0  0  0
   -1.3002    1.5026    1.2155 H   0  0  0  0  0  0  0  0  0  0  0  0
    0.1314    0.8421    2.1858 H   0  0  0  0  0  0  0  0  0  0  0  0
   -0.7173   -1.3170    1.8708 H   0  0  0  0  0  0  0  0  0  0  0  0
   -2.1239   -0.6016    1.0196 H   0  0  0  0  0  0  0  0  0  0  0  0
  1  2  1  0
  2  3  1  0
  3  4  1  0
  4  5  1  0
  5  6  1  0
  6  7  1  0
  6  8  1  0
  8  9  1  0
  6  2  1  0
  9  3  1  0
  1 10  1  0
  2 11  1  0
  3 12  1  0
  4 13  1  0
  4 14  1  0
  5 15  1  0
  5 16  1  0
  7 17  1  0
  8 18  1  0
  8 19  1  0
  9 20  1  0
  9 21  1  0
M  END
