
     RDKit          3D

 21 22  0  0  0  0  0  0  0  0999 V2000
    3.0875    0.8824   -0.0608 O   0  0  0  0  0  0  0  0  0  0  0  0
    2.4878   -0.3417    0.1487 C   0  0  0  0  0  0  0  0  0  0  0  0
    1.8155   -0.9369   -1.1056 C   0  0  0  0  0  0  0  0  0  0  0  0
    1.0377   -0.5375    0.1168 C   0  0  0  0  0  0  0  0  0  0  0  0
    0.0572    0.5673   -0.0685 C   0  0  0  0  0  0  0  0  0  0  0  0
   -1.3824    0.0622   -0.0598 C   0  0  0  0  0  0  0  0  0  0  0  0
   -1.6972   -0.8660   -1.0494 O   0  0  0  0  0  0  0  0  0  0  0  0
   -2.1506    0.0239    1.1897 C   0  0  0  0  0  0  0  0  0  0  0  0
   -2.4027    1.1517    0.2469 C   0  0  0  0  0  0  0  0  0  0  0  0
    3.9249    0.9970    0.4702 H   0  0  0  0  0  0  0  0  0  0  0  0
    3.0890   -1.0804    0.7149 H   0  0  0  0  0  0  0  0  0  0  0  0
    1.7874   -0.3120   -2.0152 H   0  0  0  0  0  0  0  0  0  0  0  0
    1.9868   -2.0127   -1.3104 H   0  0  0  0  0  0  0  0  0  0  0  0
    0.6185   -1.3746    0.7527 H   0  0  0  0  0  0  0  0  0  0  0  0
    0.2219    1.0290   -1.0609 H   0  0  0  0  0  0  0  0  0  0  0  0
    0.1910    1.3931    0.6694 H   0  0  0  0  0  0  0  0  0  0  0  0
   -2.6710   -0.9129   -1.2226 H   0  0  0  0  0  0  0  0  0  0  0  0
   -2.9611   -0.7364    1.2831 H   0  0  0  0  0  0  0  0  0  0  0  0
   -1.6276    0.2726    2.1429 H   0  0  0  0  0  0  0  0  0  0  0  0
   -2.0509    2.1459    0.5383 H   0  0  0  0  0  0  0  0  0  0  0  0
   -3.3618    1.1454   -0.3206 H   0  0  0  0  0  0  0  0  0  0  0  0
  1  2  1  0
  2  3  1  0
  3  4  1  0
  4  5  1  0
  5  6  1  0
  6  7  1  0
  6  8  1  0
  8  9  1  0
  4  2  1  0
  9  6  1  0
  1 10  1  0
  2 11  1  0
  3 12  1  0
  3 13  1  0
  4 14  1  0
  5 15  1  0
  5 16  1  0
  7 17  1  0
  8 18  1  0
  8 19  1  0
  9 20  1  0
  9 21  1  0
M  END
