
     RDKit          3D

 19 20  0  0  0  0  0  0  0  0999 V2000
    1.9545   -0.2013   -1.4962 O   0  0  0  0  0  0  0  0  0  0  0  0
    1.1700    0.2412   -0.4406 C   0  0  0  0  0  0  0  0  0  0  0  0
    0.9268   -0.8132    0.6018 C   0  0  0  0  0  0  0  0  0  0  0  0
   -0.5237   -0.7317    1.1012 C   0  0  0  0  0  0  0  0  0  0  0  0
   -1.3680   -1.0997   -0.0788 C   0  0  0  0  0  0  0  0  0  0  0  0
   -1.1215   -0.3502   -1.1622 C   0  0  0  0  0  0  0  0  0  0  0  0
   -0.1632    0.7940   -0.9191 C   0  0  0  0  0  0  0  0  0  0  0  0
   -0.7248    1.5045    0.2932 C   0  0  0  0  0  0  0  0  0  0  0  0
   -0.8125    0.7140    1.3761 C   0  0  0  0  0  0  0  0  0  0  0  0
    2.8577    0.1707   -1.4526 H   0  0  0  0  0  0  0  0  0  0  0  0
    1.7049    1.1254    0.0171 H   0  0  0  0  0  0  0  0  0  0  0  0
    1.6445   -0.8022    1.4318 H   0  0  0  0  0  0  0  0  0  0  0  0
    0.9839   -1.8096    0.0728 H   0  0  0  0  0  0  0  0  0  0  0  0
   -0.6910   -1.3695    1.9624 H   0  0  0  0  0  0  0  0  0  0  0  0
   -2.1064   -1.8942   -0.0594 H   0  0  0  0  0  0  0  0  0  0  0  0
   -1.5653   -0.5473   -2.1124 H   0  0  0  0  0  0  0  0  0  0  0  0
   -0.0781    1.4528   -1.7781 H   0  0  0  0  0  0  0  0  0  0  0  0
   -1.0186    2.5270    0.2825 H   0  0  0  0  0  0  0  0  0  0  0  0
   -1.0693    1.0895    2.3604 H   0  0  0  0  0  0  0  0  0  0  0  0
  1  2  1  0
  2  3  1  0
  3  4  1  0
  4  5  1  0
  5  6  2  0
  6  7  1  0
  7  8  1  0
  8  9  2  0
  7  2  1  0
  9  4  1  0
  1 10  1  0
  2 11  1  0
  3 12  1  0
  3 13  1  0
  4 14  1  0
  5 15  1  0
  6 16  1  0
  7 17  1  0
  8 18  1  0
  9 19  1  0
M  END
