
     RDKit          3D

 19 21  0  0  0  0  0  0  0  0999 V2000
   -0.4692    2.1246    1.0489 O   0  0  0  0  0  0  0  0  0  0  0  0
   -0.5866    1.1071    0.1335 C   0  0  0  0  0  0  0  0  0  0  0  0
   -1.3487   -0.0630    0.6913 C   0  0  0  0  0  0  0  0  0  0  0  0
   -1.8523   -1.1464   -0.1750 C   0  0  0  0  0  0  0  0  0  0  0  0
   -0.5304   -1.2673    0.5161 C   0  0  0  0  0  0  0  0  0  0  0  0
    0.6573   -0.8690   -0.3019 C   0  0  0  0  0  0  0  0  0  0  0  0
    1.7175   -0.0679    0.4017 C   0  0  0  0  0  0  0  0  0  0  0  0
    2.9838   -0.2238   -0.1636 O   0  0  0  0  0  0  0  0  0  0  0  0
    0.6996    0.6043   -0.4147 C   0  0  0  0  0  0  0  0  0  0  0  0
   -0.5971    3.0174    0.6052 H   0  0  0  0  0  0  0  0  0  0  0  0
   -1.2057    1.5077   -0.7180 H   0  0  0  0  0  0  0  0  0  0  0  0
   -1.8496    0.1377    1.6535 H   0  0  0  0  0  0  0  0  0  0  0  0
   -1.8417   -1.0875   -1.2792 H   0  0  0  0  0  0  0  0  0  0  0  0
   -2.7452   -1.6893    0.2135 H   0  0  0  0  0  0  0  0  0  0  0  0
   -0.4064   -1.9151    1.4040 H   0  0  0  0  0  0  0  0  0  0  0  0
    0.9022   -1.4261   -1.2278 H   0  0  0  0  0  0  0  0  0  0  0  0
    1.7238   -0.0567    1.5027 H   0  0  0  0  0  0  0  0  0  0  0  0
    3.6996    0.1964    0.3357 H   0  0  0  0  0  0  0  0  0  0  0  0
    1.0492    1.1169   -1.3396 H   0  0  0  0  0  0  0  0  0  0  0  0
  1  2  1  0
  2  3  1  0
  3  4  1  0
  4  5  1  0
  5  6  1  0
  6  7  1  0
  7  8  1  0
  7  9  1  0
  9  2  1  0
  5  3  1  0
  9  6  1  0
  1 10  1  0
  2 11  1  0
  3 12  1  0
  4 13  1  0
  4 14  1  0
  5 15  1  0
  6 16  1  0
  7 17  1  0
  8 18  1  0
  9 19  1  0
M  END
