
     RDKit          3D

 18 19  0  0  0  0  0  0  0  0999 V2000
   -1.2426   -1.3351   -0.9670 O   0  0  0  0  0  0  0  0  0  0  0  0
   -1.2576   -0.6129    0.2444 C   0  0  0  0  0  0  0  0  0  0  0  0
   -1.3112    0.8822    0.0768 C   0  0  0  0  0  0  0  0  0  0  0  0
    0.1063    1.0202    0.6390 C   0  0  0  0  0  0  0  0  0  0  0  0
    1.1478    1.2186   -0.3861 C   0  0  0  0  0  0  0  0  0  0  0  0
    1.7361    0.0909   -0.7416 C   0  0  0  0  0  0  0  0  0  0  0  0
    1.1723   -1.0467   -0.0010 C   0  0  0  0  0  0  0  0  0  0  0  0
    0.1180   -0.4499    0.8693 C   0  0  0  0  0  0  0  0  0  0  0  0
   -2.0432   -1.0145   -1.4821 H   0  0  0  0  0  0  0  0  0  0  0  0
   -1.9600   -1.0607    0.9495 H   0  0  0  0  0  0  0  0  0  0  0  0
   -1.3846    1.1672   -0.9959 H   0  0  0  0  0  0  0  0  0  0  0  0
   -2.0537    1.3515    0.7511 H   0  0  0  0  0  0  0  0  0  0  0  0
    0.1714    1.6763    1.5223 H   0  0  0  0  0  0  0  0  0  0  0  0
    1.3998    2.2003   -0.8025 H   0  0  0  0  0  0  0  0  0  0  0  0
    2.5479   -0.0222   -1.4924 H   0  0  0  0  0  0  0  0  0  0  0  0
    0.7504   -1.7607   -0.7558 H   0  0  0  0  0  0  0  0  0  0  0  0
    1.9255   -1.5762    0.6331 H   0  0  0  0  0  0  0  0  0  0  0  0
    0.1774   -0.7284    1.9389 H   0  0  0  0  0  0  0  0  0  0  0  0
  1  2  1  0
  2  3  1  0
  3  4  1  0
  4  5  1  0
  5  6  2  0
  6  7  1  0
  7  8  1  0
  8  2  1  0
  8  4  1  0
  1  9  1  0
  2 10  1  0
  3 11  1  0
  3 12  1  0
  4 13  1  0
  5 14  1  0
  6 15  1  0
  7 16  1  0
  7 17  1  0
  8 18  1  0
M  END
