
     RDKit          3D

 21 22  0  0  0  0  0  0  0  0999 V2000
   -2.3723   -1.2738   -0.9723 O   0  0  0  0  0  0  0  0  0  0  0  0
   -1.5009   -1.1099    0.1008 C   0  0  0  0  0  0  0  0  0  0  0  0
   -1.5561    0.3524    0.5708 C   0  0  0  0  0  0  0  0  0  0  0  0
   -0.5807    0.6505   -0.5324 C   0  0  0  0  0  0  0  0  0  0  0  0
    0.4752    1.6229   -0.2539 C   0  0  0  0  0  0  0  0  0  0  0  0
    1.7398    1.3087    0.0043 C   0  0  0  0  0  0  0  0  0  0  0  0
    2.1834   -0.1347    0.0269 C   0  0  0  0  0  0  0  0  0  0  0  0
    0.9792   -0.8947    0.6005 C   0  0  0  0  0  0  0  0  0  0  0  0
   -0.1144   -0.7863   -0.4252 C   0  0  0  0  0  0  0  0  0  0  0  0
   -2.9828   -0.4796   -1.0863 H   0  0  0  0  0  0  0  0  0  0  0  0
   -1.5529   -1.8490    0.8948 H   0  0  0  0  0  0  0  0  0  0  0  0
   -1.1977    0.5013    1.5938 H   0  0  0  0  0  0  0  0  0  0  0  0
   -2.5676    0.7550    0.4321 H   0  0  0  0  0  0  0  0  0  0  0  0
   -1.1494    0.8220   -1.4940 H   0  0  0  0  0  0  0  0  0  0  0  0
    0.2305    2.6760   -0.2533 H   0  0  0  0  0  0  0  0  0  0  0  0
    2.4731    2.0601    0.2016 H   0  0  0  0  0  0  0  0  0  0  0  0
    2.3161   -0.4799   -1.0074 H   0  0  0  0  0  0  0  0  0  0  0  0
    3.0667   -0.2765    0.6668 H   0  0  0  0  0  0  0  0  0  0  0  0
    0.6923   -0.3562    1.5199 H   0  0  0  0  0  0  0  0  0  0  0  0
    1.2872   -1.9104    0.8174 H   0  0  0  0  0  0  0  0  0  0  0  0
    0.1312   -1.1979   -1.4047 H   0  0  0  0  0  0  0  0  0  0  0  0
  1  2  1  0
  2  3  1  0
  3  4  1  0
  4  5  1  0
  5  6  2  0
  6  7  1  0
  7  8  1  0
  8  9  1  0
  9  2  1  0
  9  4  1  0
  1 10  1  0
  2 11  1  0
  3 12  1  0
  3 13  1  0
  4 14  1  0
  5 15  1  0
  6 16  1  0
  7 17  1  0
  7 18  1  0
  8 19  1  0
  8 20  1  0
  9 21  1  0
M  END
