
     RDKit          3D

 17 19  0  0  0  0  0  0  0  0999 V2000
   -1.6779    1.6280   -0.6463 O   0  0  0  0  0  0  0  0  0  0  0  0
   -1.3905    0.3949   -0.0908 C   0  0  0  0  0  0  0  0  0  0  0  0
   -0.8887   -0.6562   -1.0570 C   0  0  0  0  0  0  0  0  0  0  0  0
    0.3558   -0.8928   -0.2523 C   0  0  0  0  0  0  0  0  0  0  0  0
    0.2469   -0.9922    1.2455 C   0  0  0  0  0  0  0  0  0  0  0  0
   -0.0578    0.3033    0.6178 C   0  0  0  0  0  0  0  0  0  0  0  0
    0.8763    1.2341    0.2806 O   0  0  0  0  0  0  0  0  0  0  0  0
    2.0480    0.5586   -0.0837 C   0  0  0  0  0  0  0  0  0  0  0  0
    1.5992   -0.5614   -0.7643 O   0  0  0  0  0  0  0  0  0  0  0  0
   -2.4614    1.9893   -0.1356 H   0  0  0  0  0  0  0  0  0  0  0  0
   -2.1782   -0.0288    0.5737 H   0  0  0  0  0  0  0  0  0  0  0  0
   -0.6116   -0.2574   -2.0638 H   0  0  0  0  0  0  0  0  0  0  0  0
   -1.5736   -1.5053   -1.1792 H   0  0  0  0  0  0  0  0  0  0  0  0
   -0.6475   -1.5339    1.6616 H   0  0  0  0  0  0  0  0  0  0  0  0
    1.1611   -1.2121    1.7966 H   0  0  0  0  0  0  0  0  0  0  0  0
    2.5752    0.3253    0.8578 H   0  0  0  0  0  0  0  0  0  0  0  0
    2.6245    1.2066   -0.7606 H   0  0  0  0  0  0  0  0  0  0  0  0
  1  2  1  0
  2  3  1  0
  3  4  1  0
  4  5  1  0
  5  6  1  0
  6  7  1  0
  7  8  1  0
  8  9  1  0
  6  2  1  0
  6  4  1  0
  9  4  1  0
  1 10  1  0
  2 11  1  0
  3 12  1  0
  3 13  1  0
  5 14  1  0
  5 15  1  0
  8 16  1  0
  8 17  1  0
M  END
