
     RDKit          3D

 13 14  0  0  0  0  0  0  0  0999 V2000
   -0.0269    1.7766    0.2380 O   0  0  0  0  0  0  0  0  0  0  0  0
   -0.0255    0.7059   -0.6571 C   0  0  0  0  0  0  0  0  0  0  0  0
    0.8013   -0.4287   -0.0552 C   0  0  0  0  0  0  0  0  0  0  0  0
    1.6351   -0.0635    0.9738 O   0  0  0  0  0  0  0  0  0  0  0  0
   -0.5382   -1.0095    0.3827 C   0  0  0  0  0  0  0  0  0  0  0  0
   -1.2545   -1.4845   -0.7009 O   0  0  0  0  0  0  0  0  0  0  0  0
   -1.2519   -0.1515   -0.4011 C   0  0  0  0  0  0  0  0  0  0  0  0
   -0.3821    1.4188    1.1015 H   0  0  0  0  0  0  0  0  0  0  0  0
    0.1889    0.9474   -1.6946 H   0  0  0  0  0  0  0  0  0  0  0  0
    1.3223   -1.0139   -0.8180 H   0  0  0  0  0  0  0  0  0  0  0  0
    2.4119    0.3946    0.5900 H   0  0  0  0  0  0  0  0  0  0  0  0
   -0.6530   -1.4206    1.3813 H   0  0  0  0  0  0  0  0  0  0  0  0
   -2.2276    0.3287   -0.3403 H   0  0  0  0  0  0  0  0  0  0  0  0
  1  2  1  0
  2  3  1  0
  3  4  1  0
  3  5  1  0
  5  6  1  0
  6  7  1  0
  7  2  1  0
  7  5  1  0
  1  8  1  0
  2  9  1  0
  3 10  1  0
  4 11  1  0
  5 12  1  0
  7 13  1  0
M  END
