
     RDKit          3D

 19 21  0  0  0  0  0  0  0  0999 V2000
    1.9576    1.7799   -0.4786 O   0  0  0  0  0  0  0  0  0  0  0  0
    1.4041    0.5216   -0.7710 C   0  0  0  0  0  0  0  0  0  0  0  0
    1.5428   -0.5227    0.3700 C   0  0  0  0  0  0  0  0  0  0  0  0
    1.8715   -1.8302   -0.0472 O   0  0  0  0  0  0  0  0  0  0  0  0
    0.2616   -0.0182   -0.0651 C   0  0  0  0  0  0  0  0  0  0  0  0
   -0.8010   -0.8494   -0.7263 C   0  0  0  0  0  0  0  0  0  0  0  0
   -1.7847    0.2227   -0.2596 C   0  0  0  0  0  0  0  0  0  0  0  0
   -1.9941    0.2734    1.1987 C   0  0  0  0  0  0  0  0  0  0  0  0
   -0.7014    0.7559    0.7409 C   0  0  0  0  0  0  0  0  0  0  0  0
    2.6648    1.6376    0.2167 H   0  0  0  0  0  0  0  0  0  0  0  0
    1.6149    0.1114   -1.7975 H   0  0  0  0  0  0  0  0  0  0  0  0
    2.0760   -0.1900    1.2589 H   0  0  0  0  0  0  0  0  0  0  0  0
    1.1390   -2.2087   -0.6287 H   0  0  0  0  0  0  0  0  0  0  0  0
   -0.9516   -1.8400   -0.2221 H   0  0  0  0  0  0  0  0  0  0  0  0
   -0.7167   -0.9661   -1.8078 H   0  0  0  0  0  0  0  0  0  0  0  0
   -2.1758    0.9444   -0.9656 H   0  0  0  0  0  0  0  0  0  0  0  0
   -2.1202   -0.7125    1.7304 H   0  0  0  0  0  0  0  0  0  0  0  0
   -2.7367    1.0231    1.5420 H   0  0  0  0  0  0  0  0  0  0  0  0
   -0.5502    1.8678    0.7119 H   0  0  0  0  0  0  0  0  0  0  0  0
  1  2  1  0
  2  3  1  0
  3  4  1  0
  3  5  1  0
  5  6  1  0
  6  7  1  0
  7  8  1  0
  8  9  1  0
  5  2  1  0
  9  7  1  0
  9  5  1  0
  1 10  1  0
  2 11  1  0
  3 12  1  0
  4 13  1  0
  6 14  1  0
  6 15  1  0
  7 16  1  0
  8 17  1  0
  8 18  1  0
  9 19  1  0
M  END
