
     RDKit          3D

 19 21  0  0  0  0  0  0  0  0999 V2000
    2.4095    1.2041    1.5096 O   0  0  0  0  0  0  0  0  0  0  0  0
    2.0996    0.6267    0.3034 C   0  0  0  0  0  0  0  0  0  0  0  0
    1.8452   -0.8507    0.1891 C   0  0  0  0  0  0  0  0  0  0  0  0
    0.7777    0.1264    0.0704 C   0  0  0  0  0  0  0  0  0  0  0  0
   -0.0439    0.3434   -1.1552 C   0  0  0  0  0  0  0  0  0  0  0  0
   -1.1089    0.0230   -0.1842 C   0  0  0  0  0  0  0  0  0  0  0  0
   -2.5060    0.3147   -0.2751 C   0  0  0  0  0  0  0  0  0  0  0  0
   -1.9584   -1.1308   -0.4045 C   0  0  0  0  0  0  0  0  0  0  0  0
   -0.3017    0.2135    0.9141 O   0  0  0  0  0  0  0  0  0  0  0  0
    2.2679    2.1933    1.4221 H   0  0  0  0  0  0  0  0  0  0  0  0
    2.6595    1.0597   -0.5756 H   0  0  0  0  0  0  0  0  0  0  0  0
    1.8568   -1.4657    1.1362 H   0  0  0  0  0  0  0  0  0  0  0  0
    2.1688   -1.4228   -0.6821 H   0  0  0  0  0  0  0  0  0  0  0  0
    0.0631   -0.4427   -1.9479 H   0  0  0  0  0  0  0  0  0  0  0  0
   -0.0181    1.3685   -1.5765 H   0  0  0  0  0  0  0  0  0  0  0  0
   -3.0209    0.7425   -1.1375 H   0  0  0  0  0  0  0  0  0  0  0  0
   -3.0842    0.4641    0.6818 H   0  0  0  0  0  0  0  0  0  0  0  0
   -2.1367   -1.8203    0.4191 H   0  0  0  0  0  0  0  0  0  0  0  0
   -1.9694   -1.5469   -1.4545 H   0  0  0  0  0  0  0  0  0  0  0  0
  1  2  1  0
  2  3  1  0
  3  4  1  0
  4  5  1  0
  5  6  1  0
  6  7  1  0
  7  8  1  0
  6  9  1  0
  4  2  1  0
  8  6  1  0
  9  4  1  0
  1 10  1  0
  2 11  1  0
  3 12  1  0
  3 13  1  0
  5 14  1  0
  5 15  1  0
  7 16  1  0
  7 17  1  0
  8 18  1  0
  8 19  1  0
M  END
