
     RDKit          3D

 19 20  0  0  0  0  0  0  0  0999 V2000
    1.9190    0.7701    1.0322 O   0  0  0  0  0  0  0  0  0  0  0  0
    1.1575    0.0198    0.1717 C   0  0  0  0  0  0  0  0  0  0  0  0
    0.8065   -1.3375    0.6807 C   0  0  0  0  0  0  0  0  0  0  0  0
   -0.2765   -1.8849    0.0299 O   0  0  0  0  0  0  0  0  0  0  0  0
   -1.2194   -0.9678   -0.3677 C   0  0  0  0  0  0  0  0  0  0  0  0
   -1.2684    0.2483    0.5679 C   0  0  0  0  0  0  0  0  0  0  0  0
   -0.0812    0.7643   -0.2254 C   0  0  0  0  0  0  0  0  0  0  0  0
    0.0090    2.1143   -0.3805 O   0  0  0  0  0  0  0  0  0  0  0  0
   -0.6692    0.0066   -1.4204 C   0  0  0  0  0  0  0  0  0  0  0  0
    2.1792    1.6023    0.5462 H   0  0  0  0  0  0  0  0  0  0  0  0
    1.7632   -0.1151   -0.7709 H   0  0  0  0  0  0  0  0  0  0  0  0
    1.6868   -2.0085    0.4531 H   0  0  0  0  0  0  0  0  0  0  0  0
    0.7082   -1.3872    1.7936 H   0  0  0  0  0  0  0  0  0  0  0  0
   -2.1822   -1.3883   -0.6340 H   0  0  0  0  0  0  0  0  0  0  0  0
   -2.2012    0.8136    0.3764 H   0  0  0  0  0  0  0  0  0  0  0  0
   -1.0837    0.0254    1.6204 H   0  0  0  0  0  0  0  0  0  0  0  0
    0.1418    2.5477    0.4777 H   0  0  0  0  0  0  0  0  0  0  0  0
    0.0794   -0.4308   -2.0943 H   0  0  0  0  0  0  0  0  0  0  0  0
   -1.4690    0.6077   -1.8564 H   0  0  0  0  0  0  0  0  0  0  0  0
  1  2  1  0
  2  3  1  0
  3  4  1  0
  4  5  1  0
  5  6  1  0
  6  7  1  0
  7  8  1  0
  7  9  1  0
  7  2  1  0
  9  5  1  0
  1 10  1  0
  2 11  1  0
  3 12  1  0
  3 13  1  0
  5 14  1  0
  6 15  1  0
  6 16  1  0
  8 17  1  0
  9 18  1  0
  9 19  1  0
M  END
