
     RDKit          3D

 21 21  0  0  0  0  0  0  0  0999 V2000
    2.4112   -0.6497    0.8446 O   0  0  0  0  0  0  0  0  0  0  0  0
    1.3131   -0.8628    0.0022 C   0  0  0  0  0  0  0  0  0  0  0  0
    1.2332    0.2250   -0.9838 C   0  0  0  0  0  0  0  0  0  0  0  0
    0.5670    1.4515   -0.6196 C   0  0  0  0  0  0  0  0  0  0  0  0
   -0.6221    1.6659   -0.0852 C   0  0  0  0  0  0  0  0  0  0  0  0
   -1.6116    0.6690    0.2906 C   0  0  0  0  0  0  0  0  0  0  0  0
   -1.1828   -0.7469    0.3113 C   0  0  0  0  0  0  0  0  0  0  0  0
   -1.2818   -1.3584   -0.9597 O   0  0  0  0  0  0  0  0  0  0  0  0
    0.1411   -1.0345    0.9126 C   0  0  0  0  0  0  0  0  0  0  0  0
    2.1445    0.1167    1.4315 H   0  0  0  0  0  0  0  0  0  0  0  0
    1.5365   -1.8157   -0.5188 H   0  0  0  0  0  0  0  0  0  0  0  0
    0.7105   -0.1880   -1.9013 H   0  0  0  0  0  0  0  0  0  0  0  0
    2.2566    0.4549   -1.3430 H   0  0  0  0  0  0  0  0  0  0  0  0
    1.1480    2.3578   -0.8222 H   0  0  0  0  0  0  0  0  0  0  0  0
   -0.8872    2.6991    0.0922 H   0  0  0  0  0  0  0  0  0  0  0  0
   -2.0066    0.9704    1.3090 H   0  0  0  0  0  0  0  0  0  0  0  0
   -2.5449    0.7115   -0.3504 H   0  0  0  0  0  0  0  0  0  0  0  0
   -1.9497   -1.3111    0.9261 H   0  0  0  0  0  0  0  0  0  0  0  0
   -1.7564   -0.7740   -1.5984 H   0  0  0  0  0  0  0  0  0  0  0  0
    0.2494   -0.4716    1.8604 H   0  0  0  0  0  0  0  0  0  0  0  0
    0.1320   -2.1092    1.2019 H   0  0  0  0  0  0  0  0  0  0  0  0
  1  2  1  0
  2  3  1  0
  3  4  1  0
  4  5  2  0
  5  6  1  0
  6  7  1  0
  7  8  1  0
  7  9  1  0
  9  2  1  0
  1 10  1  0
  2 11  1  0
  3 12  1  0
  3 13  1  0
  4 14  1  0
  5 15  1  0
  6 16  1  0
  6 17  1  0
  7 18  1  0
  8 19  1  0
  9 20  1  0
  9 21  1  0
M  END
