
     RDKit          3D

 21 22  0  0  0  0  0  0  0  0999 V2000
   -3.2531    0.2083    0.6621 O   0  0  0  0  0  0  0  0  0  0  0  0
   -1.8775    0.3180    0.4970 C   0  0  0  0  0  0  0  0  0  0  0  0
   -1.1633   -0.9875    0.2306 C   0  0  0  0  0  0  0  0  0  0  0  0
   -0.3317   -0.2461   -0.7959 C   0  0  0  0  0  0  0  0  0  0  0  0
    0.8717    0.4545   -0.2602 C   0  0  0  0  0  0  0  0  0  0  0  0
    1.9023   -0.3845    0.4216 C   0  0  0  0  0  0  0  0  0  0  0  0
    2.8806    0.1887   -0.5829 C   0  0  0  0  0  0  0  0  0  0  0  0
    1.7878    0.6930   -1.2847 O   0  0  0  0  0  0  0  0  0  0  0  0
   -1.4829    0.7368   -0.9057 C   0  0  0  0  0  0  0  0  0  0  0  0
   -3.5305   -0.6142    1.1308 H   0  0  0  0  0  0  0  0  0  0  0  0
   -1.4439    0.9371    1.3061 H   0  0  0  0  0  0  0  0  0  0  0  0
   -0.5896   -1.3915    1.0880 H   0  0  0  0  0  0  0  0  0  0  0  0
   -1.8334   -1.7048   -0.2851 H   0  0  0  0  0  0  0  0  0  0  0  0
   -0.1143   -0.8087   -1.7171 H   0  0  0  0  0  0  0  0  0  0  0  0
    0.6589    1.4382    0.2447 H   0  0  0  0  0  0  0  0  0  0  0  0
    1.7700   -1.4705    0.3998 H   0  0  0  0  0  0  0  0  0  0  0  0
    2.1725   -0.0186    1.4362 H   0  0  0  0  0  0  0  0  0  0  0  0
    3.5058    1.0198   -0.2104 H   0  0  0  0  0  0  0  0  0  0  0  0
    3.4430   -0.6109   -1.0729 H   0  0  0  0  0  0  0  0  0  0  0  0
   -2.2224    0.4475   -1.6698 H   0  0  0  0  0  0  0  0  0  0  0  0
   -1.1499    1.7952   -0.9761 H   0  0  0  0  0  0  0  0  0  0  0  0
  1  2  1  0
  2  3  1  0
  3  4  1  0
  4  5  1  0
  5  6  1  0
  6  7  1  0
  7  8  1  0
  4  9  1  0
  9  2  1  0
  8  5  1  0
  1 10  1  0
  2 11  1  0
  3 12  1  0
  3 13  1  0
  4 14  1  0
  5 15  1  0
  6 16  1  0
  6 17  1  0
  7 18  1  0
  7 19  1  0
  9 20  1  0
  9 21  1  0
M  END
