
     RDKit          3D

 21 22  0  0  0  0  0  0  0  0999 V2000
   -2.7618    0.9198   -0.4209 O   0  0  0  0  0  0  0  0  0  0  0  0
   -1.4573    0.3756   -0.4874 C   0  0  0  0  0  0  0  0  0  0  0  0
   -1.5289   -0.9854    0.0835 C   0  0  0  0  0  0  0  0  0  0  0  0
   -0.4368   -1.5275    0.5640 C   0  0  0  0  0  0  0  0  0  0  0  0
    0.8406   -0.8316    0.5528 C   0  0  0  0  0  0  0  0  0  0  0  0
    1.4776   -0.8509   -0.8251 C   0  0  0  0  0  0  0  0  0  0  0  0
    1.7844    0.6209   -0.6204 C   0  0  0  0  0  0  0  0  0  0  0  0
    0.8205    0.6504    0.5392 C   0  0  0  0  0  0  0  0  0  0  0  0
   -0.4746    1.2847    0.1831 C   0  0  0  0  0  0  0  0  0  0  0  0
   -3.0741    0.9084    0.5043 H   0  0  0  0  0  0  0  0  0  0  0  0
   -1.2483    0.2975   -1.5825 H   0  0  0  0  0  0  0  0  0  0  0  0
   -2.4688   -1.5602    0.1194 H   0  0  0  0  0  0  0  0  0  0  0  0
   -0.4456   -2.5528    1.0019 H   0  0  0  0  0  0  0  0  0  0  0  0
    1.5246   -1.2474    1.3469 H   0  0  0  0  0  0  0  0  0  0  0  0
    0.7746   -0.9838   -1.6712 H   0  0  0  0  0  0  0  0  0  0  0  0
    2.3594   -1.5171   -0.8306 H   0  0  0  0  0  0  0  0  0  0  0  0
    1.4408    1.2736   -1.4734 H   0  0  0  0  0  0  0  0  0  0  0  0
    2.8375    0.8074   -0.3709 H   0  0  0  0  0  0  0  0  0  0  0  0
    1.2864    1.0765    1.4488 H   0  0  0  0  0  0  0  0  0  0  0  0
   -0.2848    2.1336   -0.5078 H   0  0  0  0  0  0  0  0  0  0  0  0
   -0.9653    1.7084    1.0845 H   0  0  0  0  0  0  0  0  0  0  0  0
  1  2  1  0
  2  3  1  0
  3  4  2  0
  4  5  1  0
  5  6  1  0
  6  7  1  0
  7  8  1  0
  8  9  1  0
  9  2  1  0
  8  5  1  0
  1 10  1  0
  2 11  1  0
  3 12  1  0
  4 13  1  0
  5 14  1  0
  6 15  1  0
  6 16  1  0
  7 17  1  0
  7 18  1  0
  8 19  1  0
  9 20  1  0
  9 21  1  0
M  END
