
     RDKit          3D

 19 20  0  0  0  0  0  0  0  0999 V2000
   -2.1733    0.1716   -1.1334 O   0  0  0  0  0  0  0  0  0  0  0  0
   -1.3484    0.2403   -0.0178 C   0  0  0  0  0  0  0  0  0  0  0  0
   -0.6392    1.5268    0.0868 C   0  0  0  0  0  0  0  0  0  0  0  0
    0.6796    1.5802    0.0960 C   0  0  0  0  0  0  0  0  0  0  0  0
    1.5440    0.3834   -0.0687 C   0  0  0  0  0  0  0  0  0  0  0  0
    0.8127   -0.5728   -0.9949 C   0  0  0  0  0  0  0  0  0  0  0  0
   -0.3649   -0.9214   -0.0752 C   0  0  0  0  0  0  0  0  0  0  0  0
    0.3607   -0.9774    1.2551 C   0  0  0  0  0  0  0  0  0  0  0  0
    1.5739   -0.3719    1.1094 O   0  0  0  0  0  0  0  0  0  0  0  0
   -2.3549   -0.7694   -1.3451 H   0  0  0  0  0  0  0  0  0  0  0  0
   -1.9671    0.1154    0.9051 H   0  0  0  0  0  0  0  0  0  0  0  0
   -1.2001    2.4424    0.1573 H   0  0  0  0  0  0  0  0  0  0  0  0
    1.1514    2.5405    0.2298 H   0  0  0  0  0  0  0  0  0  0  0  0
    2.5509    0.6153   -0.4046 H   0  0  0  0  0  0  0  0  0  0  0  0
    0.5007   -0.1290   -1.9304 H   0  0  0  0  0  0  0  0  0  0  0  0
    1.4182   -1.4852   -1.0653 H   0  0  0  0  0  0  0  0  0  0  0  0
   -0.8455   -1.8546   -0.3554 H   0  0  0  0  0  0  0  0  0  0  0  0
   -0.2255   -0.4725    2.0541 H   0  0  0  0  0  0  0  0  0  0  0  0
    0.5269   -2.0617    1.4971 H   0  0  0  0  0  0  0  0  0  0  0  0
  1  2  1  0
  2  3  1  0
  3  4  2  0
  4  5  1  0
  5  6  1  0
  6  7  1  0
  7  8  1  0
  8  9  1  0
  7  2  1  0
  9  5  1  0
  1 10  1  0
  2 11  1  0
  3 12  1  0
  4 13  1  0
  5 14  1  0
  6 15  1  0
  6 16  1  0
  7 17  1  0
  8 18  1  0
  8 19  1  0
M  END
