
     RDKit          3D

 19 20  0  0  0  0  0  0  0  0999 V2000
    1.0648   -1.9072    0.0460 O   0  0  0  0  0  0  0  0  0  0  0  0
    0.9127   -0.6534   -0.5833 C   0  0  0  0  0  0  0  0  0  0  0  0
    2.0213    0.2499   -0.1521 C   0  0  0  0  0  0  0  0  0  0  0  0
    1.5122    1.2217    0.6650 O   0  0  0  0  0  0  0  0  0  0  0  0
    0.1541    1.2961    0.4959 C   0  0  0  0  0  0  0  0  0  0  0  0
   -0.3234   -0.0122   -0.0295 C   0  0  0  0  0  0  0  0  0  0  0  0
   -1.3671   -0.8213    0.5846 C   0  0  0  0  0  0  0  0  0  0  0  0
   -1.6159   -0.0336   -0.7250 C   0  0  0  0  0  0  0  0  0  0  0  0
   -2.4154    1.1234   -0.5967 O   0  0  0  0  0  0  0  0  0  0  0  0
    1.8314   -1.8706    0.6981 H   0  0  0  0  0  0  0  0  0  0  0  0
    0.8721   -0.8244   -1.6758 H   0  0  0  0  0  0  0  0  0  0  0  0
    2.7821   -0.3246    0.4495 H   0  0  0  0  0  0  0  0  0  0  0  0
    2.6104    0.6688   -1.0082 H   0  0  0  0  0  0  0  0  0  0  0  0
   -0.3349    1.6138    1.4427 H   0  0  0  0  0  0  0  0  0  0  0  0
   -0.0428    2.0682   -0.2957 H   0  0  0  0  0  0  0  0  0  0  0  0
   -1.2679   -1.9268    0.4825 H   0  0  0  0  0  0  0  0  0  0  0  0
   -2.0042   -0.5092    1.4166 H   0  0  0  0  0  0  0  0  0  0  0  0
   -1.8323   -0.6737   -1.5951 H   0  0  0  0  0  0  0  0  0  0  0  0
   -2.5572    1.3152    0.3803 H   0  0  0  0  0  0  0  0  0  0  0  0
  1  2  1  0
  2  3  1  0
  3  4  1  0
  4  5  1  0
  5  6  1  0
  6  7  1  0
  7  8  1  0
  8  9  1  0
  6  2  1  0
  8  6  1  0
  1 10  1  0
  2 11  1  0
  3 12  1  0
  3 13  1  0
  5 14  1  0
  5 15  1  0
  7 16  1  0
  7 17  1  0
  8 18  1  0
  9 19  1  0
M  END
