
     RDKit          3D

 18 19  0  0  0  0  0  0  0  0999 V2000
   -0.5054    1.9408    0.7280 O   0  0  0  0  0  0  0  0  0  0  0  0
    0.4392    0.9899    0.4830 C   0  0  0  0  0  0  0  0  0  0  0  0
    0.0618   -0.3826    1.0690 C   0  0  0  0  0  0  0  0  0  0  0  0
    1.0363   -1.2349    0.3162 C   0  0  0  0  0  0  0  0  0  0  0  0
    1.3914   -0.6429   -0.8237 C   0  0  0  0  0  0  0  0  0  0  0  0
    0.4043    0.4875   -0.9706 C   0  0  0  0  0  0  0  0  0  0  0  0
   -0.9491   -0.1401   -1.0152 C   0  0  0  0  0  0  0  0  0  0  0  0
   -1.2773   -0.5771    0.4239 C   0  0  0  0  0  0  0  0  0  0  0  0
   -0.0688    2.6946    1.2112 H   0  0  0  0  0  0  0  0  0  0  0  0
    1.4565    1.2216    0.8048 H   0  0  0  0  0  0  0  0  0  0  0  0
    0.1150   -0.4392    2.1264 H   0  0  0  0  0  0  0  0  0  0  0  0
    1.4086   -2.1989    0.6410 H   0  0  0  0  0  0  0  0  0  0  0  0
    2.1670   -0.8483   -1.5237 H   0  0  0  0  0  0  0  0  0  0  0  0
    0.6479    1.2167   -1.6994 H   0  0  0  0  0  0  0  0  0  0  0  0
   -1.7352    0.4731   -1.4470 H   0  0  0  0  0  0  0  0  0  0  0  0
   -0.8935   -1.0920   -1.6100 H   0  0  0  0  0  0  0  0  0  0  0  0
   -1.6472   -1.6049    0.4626 H   0  0  0  0  0  0  0  0  0  0  0  0
   -2.0514    0.1367    0.8235 H   0  0  0  0  0  0  0  0  0  0  0  0
  1  2  1  0
  2  3  1  0
  3  4  1  0
  4  5  2  0
  5  6  1  0
  6  7  1  0
  7  8  1  0
  6  2  1  0
  8  3  1  0
  1  9  1  0
  2 10  1  0
  3 11  1  0
  4 12  1  0
  5 13  1  0
  6 14  1  0
  7 15  1  0
  7 16  1  0
  8 17  1  0
  8 18  1  0
M  END
