
     RDKit          3D

 19 21  0  0  0  0  0  0  0  0999 V2000
   -0.6202    2.3165    0.1310 O   0  0  0  0  0  0  0  0  0  0  0  0
   -1.1446    1.0549    0.1835 C   0  0  0  0  0  0  0  0  0  0  0  0
   -0.6067    0.0852   -0.8830 C   0  0  0  0  0  0  0  0  0  0  0  0
   -1.3532   -1.1385   -0.4967 C   0  0  0  0  0  0  0  0  0  0  0  0
   -1.2090   -1.1566    0.8539 C   0  0  0  0  0  0  0  0  0  0  0  0
   -0.3803    0.0812    1.0966 C   0  0  0  0  0  0  0  0  0  0  0  0
    0.5905   -0.0281   -0.0076 C   0  0  0  0  0  0  0  0  0  0  0  0
    1.6292   -1.0365   -0.1380 C   0  0  0  0  0  0  0  0  0  0  0  0
    1.8802    0.5023   -0.1659 C   0  0  0  0  0  0  0  0  0  0  0  0
   -0.7942    2.7537   -0.7406 H   0  0  0  0  0  0  0  0  0  0  0  0
   -2.2137    0.9422    0.3653 H   0  0  0  0  0  0  0  0  0  0  0  0
   -0.5626    0.4071   -1.8756 H   0  0  0  0  0  0  0  0  0  0  0  0
   -1.8817   -1.8445   -1.1207 H   0  0  0  0  0  0  0  0  0  0  0  0
   -1.5876   -1.8679    1.5593 H   0  0  0  0  0  0  0  0  0  0  0  0
   -0.1514    0.3715    2.0714 H   0  0  0  0  0  0  0  0  0  0  0  0
    1.7043   -1.5666   -1.0986 H   0  0  0  0  0  0  0  0  0  0  0  0
    1.9541   -1.5796    0.7486 H   0  0  0  0  0  0  0  0  0  0  0  0
    2.2448    0.8593   -1.1530 H   0  0  0  0  0  0  0  0  0  0  0  0
    2.5021    0.8446    0.6701 H   0  0  0  0  0  0  0  0  0  0  0  0
  1  2  1  0
  2  3  1  0
  3  4  1  0
  4  5  2  0
  5  6  1  0
  6  7  1  0
  7  8  1  0
  8  9  1  0
  6  2  1  0
  9  7  1  0
  7  3  1  0
  1 10  1  0
  2 11  1  0
  3 12  1  0
  4 13  1  0
  5 14  1  0
  6 15  1  0
  8 16  1  0
  8 17  1  0
  9 18  1  0
  9 19  1  0
M  END
