
     RDKit          3D

 19 21  0  0  0  0  0  0  0  0999 V2000
   -2.6835    1.2399    0.1542 O   0  0  0  0  0  0  0  0  0  0  0  0
   -1.4690    0.7687   -0.3426 C   0  0  0  0  0  0  0  0  0  0  0  0
   -0.2873    0.7228    0.6573 C   0  0  0  0  0  0  0  0  0  0  0  0
    1.0489    0.8787    0.0367 C   0  0  0  0  0  0  0  0  0  0  0  0
    2.1653   -0.0413    0.2059 C   0  0  0  0  0  0  0  0  0  0  0  0
    1.1946   -0.2638   -0.8740 C   0  0  0  0  0  0  0  0  0  0  0  0
    0.0946   -1.2603   -0.5899 C   0  0  0  0  0  0  0  0  0  0  0  0
   -0.9398   -0.4932    0.1815 C   0  0  0  0  0  0  0  0  0  0  0  0
   -1.7035   -1.2849    1.0520 O   0  0  0  0  0  0  0  0  0  0  0  0
   -2.5453    2.0866    0.6664 H   0  0  0  0  0  0  0  0  0  0  0  0
   -1.2273    1.1080   -1.3770 H   0  0  0  0  0  0  0  0  0  0  0  0
   -0.4986    1.1225    1.6799 H   0  0  0  0  0  0  0  0  0  0  0  0
    1.2727    1.9326   -0.3015 H   0  0  0  0  0  0  0  0  0  0  0  0
    2.2159   -0.8167    1.0064 H   0  0  0  0  0  0  0  0  0  0  0  0
    3.1817    0.3559   -0.0387 H   0  0  0  0  0  0  0  0  0  0  0  0
    1.3954   -0.0349   -1.9342 H   0  0  0  0  0  0  0  0  0  0  0  0
    0.4886   -2.0511    0.1045 H   0  0  0  0  0  0  0  0  0  0  0  0
   -0.2993   -1.7350   -1.5113 H   0  0  0  0  0  0  0  0  0  0  0  0
   -1.4042   -2.2347    1.0503 H   0  0  0  0  0  0  0  0  0  0  0  0
  1  2  1  0
  2  3  1  0
  3  4  1  0
  4  5  1  0
  5  6  1  0
  6  7  1  0
  7  8  1  0
  8  9  1  0
  8  2  1  0
  8  3  1  0
  6  4  1  0
  1 10  1  0
  2 11  1  0
  3 12  1  0
  4 13  1  0
  5 14  1  0
  5 15  1  0
  6 16  1  0
  7 17  1  0
  7 18  1  0
  9 19  1  0
M  END
