
     RDKit          3D

 17 19  0  0  0  0  0  0  0  0999 V2000
    1.9269   -1.2036    0.7570 O   0  0  0  0  0  0  0  0  0  0  0  0
    1.2648   -0.5294   -0.2952 C   0  0  0  0  0  0  0  0  0  0  0  0
    1.2536    0.8944    0.0648 C   0  0  0  0  0  0  0  0  0  0  0  0
    0.1349    1.5346    0.2611 C   0  0  0  0  0  0  0  0  0  0  0  0
   -1.2248    0.9604    0.1581 C   0  0  0  0  0  0  0  0  0  0  0  0
   -1.5523   -0.3637    0.7101 C   0  0  0  0  0  0  0  0  0  0  0  0
   -0.6901   -1.4256    0.7023 O   0  0  0  0  0  0  0  0  0  0  0  0
   -0.0787   -1.1211   -0.5091 C   0  0  0  0  0  0  0  0  0  0  0  0
   -1.1874   -0.1720   -0.7957 C   0  0  0  0  0  0  0  0  0  0  0  0
    2.5465   -0.6194    1.2330 H   0  0  0  0  0  0  0  0  0  0  0  0
    1.9516   -0.6572   -1.1606 H   0  0  0  0  0  0  0  0  0  0  0  0
    2.1999    1.3940    0.1617 H   0  0  0  0  0  0  0  0  0  0  0  0
    0.2044    2.5979    0.5276 H   0  0  0  0  0  0  0  0  0  0  0  0
   -2.0920    1.6465    0.0126 H   0  0  0  0  0  0  0  0  0  0  0  0
   -2.5956   -0.6056    0.9377 H   0  0  0  0  0  0  0  0  0  0  0  0
   -0.0782   -1.9453   -1.2527 H   0  0  0  0  0  0  0  0  0  0  0  0
   -1.9834   -0.3849   -1.5127 H   0  0  0  0  0  0  0  0  0  0  0  0
  1  2  1  0
  2  3  1  0
  3  4  2  0
  4  5  1  0
  5  6  1  0
  6  7  1  0
  7  8  1  0
  8  9  1  0
  8  2  1  0
  9  5  1  0
  9  6  1  0
  1 10  1  0
  2 11  1  0
  3 12  1  0
  4 13  1  0
  5 14  1  0
  6 15  1  0
  8 16  1  0
  9 17  1  0
M  END
