
     RDKit          3D

 19 20  0  0  0  0  0  0  0  0999 V2000
   -2.3714   -0.2057    1.5617 O   0  0  0  0  0  0  0  0  0  0  0  0
   -2.3323   -0.5298    0.2117 C   0  0  0  0  0  0  0  0  0  0  0  0
   -2.4357    0.6388   -0.7249 C   0  0  0  0  0  0  0  0  0  0  0  0
   -1.1280   -0.0344   -0.6014 C   0  0  0  0  0  0  0  0  0  0  0  0
   -0.1073    0.4604    0.1709 O   0  0  0  0  0  0  0  0  0  0  0  0
    1.1595    0.1210   -0.2694 C   0  0  0  0  0  0  0  0  0  0  0  0
    2.2874    1.0727   -0.1099 C   0  0  0  0  0  0  0  0  0  0  0  0
    2.2334   -0.1217    0.7704 C   0  0  0  0  0  0  0  0  0  0  0  0
    3.0515   -1.2204    0.5246 O   0  0  0  0  0  0  0  0  0  0  0  0
   -2.1575   -1.0121    2.0941 H   0  0  0  0  0  0  0  0  0  0  0  0
   -2.7048   -1.5252   -0.0772 H   0  0  0  0  0  0  0  0  0  0  0  0
   -2.6315    1.6425   -0.2898 H   0  0  0  0  0  0  0  0  0  0  0  0
   -3.0512    0.4372   -1.6227 H   0  0  0  0  0  0  0  0  0  0  0  0
   -0.8161   -0.6413   -1.4772 H   0  0  0  0  0  0  0  0  0  0  0  0
    1.1557   -0.5070   -1.1907 H   0  0  0  0  0  0  0  0  0  0  0  0
    3.0455    1.0892   -0.9340 H   0  0  0  0  0  0  0  0  0  0  0  0
    2.1333    2.0809    0.3290 H   0  0  0  0  0  0  0  0  0  0  0  0
    2.0054    0.0405    1.8318 H   0  0  0  0  0  0  0  0  0  0  0  0
    2.6641   -1.7858   -0.1970 H   0  0  0  0  0  0  0  0  0  0  0  0
  1  2  1  0
  2  3  1  0
  3  4  1  0
  4  5  1  0
  5  6  1  0
  6  7  1  0
  7  8  1  0
  8  9  1  0
  4  2  1  0
  8  6  1  0
  1 10  1  0
  2 11  1  0
  3 12  1  0
  3 13  1  0
  4 14  1  0
  6 15  1  0
  7 16  1  0
  7 17  1  0
  8 18  1  0
  9 19  1  0
M  END
