
     RDKit          3D

 18 18  0  0  0  0  0  0  0  0999 V2000
   -2.1182   -1.1917    0.8765 O   0  0  0  0  0  0  0  0  0  0  0  0
   -1.1758   -0.5978    0.0220 C   0  0  0  0  0  0  0  0  0  0  0  0
   -0.0582   -1.5081   -0.1225 C   0  0  0  0  0  0  0  0  0  0  0  0
    1.2299   -1.2852   -0.1916 C   0  0  0  0  0  0  0  0  0  0  0  0
    1.8847    0.0127   -0.1358 C   0  0  0  0  0  0  0  0  0  0  0  0
    1.4222    1.2574   -0.1947 C   0  0  0  0  0  0  0  0  0  0  0  0
   -0.0134    1.6109   -0.3457 C   0  0  0  0  0  0  0  0  0  0  0  0
   -0.9028    0.7574    0.5159 C   0  0  0  0  0  0  0  0  0  0  0  0
   -2.5101   -1.9980    0.5084 H   0  0  0  0  0  0  0  0  0  0  0  0
   -1.6972   -0.5336   -0.9741 H   0  0  0  0  0  0  0  0  0  0  0  0
   -0.3157   -2.5780   -0.1866 H   0  0  0  0  0  0  0  0  0  0  0  0
    1.9080   -2.1472   -0.3030 H   0  0  0  0  0  0  0  0  0  0  0  0
    2.9866   -0.0357   -0.0218 H   0  0  0  0  0  0  0  0  0  0  0  0
    2.1444    2.0617   -0.1276 H   0  0  0  0  0  0  0  0  0  0  0  0
   -0.2075    2.6725   -0.0720 H   0  0  0  0  0  0  0  0  0  0  0  0
   -0.2798    1.4519   -1.4144 H   0  0  0  0  0  0  0  0  0  0  0  0
   -0.4412    0.7372    1.5320 H   0  0  0  0  0  0  0  0  0  0  0  0
   -1.8560    1.3136    0.6350 H   0  0  0  0  0  0  0  0  0  0  0  0
  1  2  1  0
  2  3  1  0
  3  4  2  0
  4  5  1  0
  5  6  2  0
  6  7  1  0
  7  8  1  0
  8  2  1  0
  1  9  1  0
  2 10  1  0
  3 11  1  0
  4 12  1  0
  5 13  1  0
  6 14  1  0
  7 15  1  0
  7 16  1  0
  8 17  1  0
  8 18  1  0
M  END
