
     RDKit          3D

 19 20  0  0  0  0  0  0  0  0999 V2000
   -2.5049    0.2441   -0.9554 O   0  0  0  0  0  0  0  0  0  0  0  0
   -1.9657   -0.2543    0.2020 C   0  0  0  0  0  0  0  0  0  0  0  0
   -1.0575    0.7877    0.7763 C   0  0  0  0  0  0  0  0  0  0  0  0
    0.1486    0.6260    0.2933 C   0  0  0  0  0  0  0  0  0  0  0  0
    1.5487    1.0812    0.2514 C   0  0  0  0  0  0  0  0  0  0  0  0
    2.2801   -0.2036    0.0209 C   0  0  0  0  0  0  0  0  0  0  0  0
    1.4161   -1.0800   -0.5669 O   0  0  0  0  0  0  0  0  0  0  0  0
    0.1588   -0.5591   -0.6607 C   0  0  0  0  0  0  0  0  0  0  0  0
   -0.9438   -1.3692   -0.0651 C   0  0  0  0  0  0  0  0  0  0  0  0
   -2.2461    1.1863   -1.1468 H   0  0  0  0  0  0  0  0  0  0  0  0
   -2.6848   -0.6432    0.9196 H   0  0  0  0  0  0  0  0  0  0  0  0
   -1.4258    1.5351    1.4865 H   0  0  0  0  0  0  0  0  0  0  0  0
    1.6607    1.7742   -0.6098 H   0  0  0  0  0  0  0  0  0  0  0  0
    1.8994    1.5310    1.1995 H   0  0  0  0  0  0  0  0  0  0  0  0
    3.1562    0.0121   -0.6230 H   0  0  0  0  0  0  0  0  0  0  0  0
    2.6442   -0.5764    1.0167 H   0  0  0  0  0  0  0  0  0  0  0  0
   -0.0663   -0.2184   -1.6979 H   0  0  0  0  0  0  0  0  0  0  0  0
   -1.3960   -2.1062   -0.7400 H   0  0  0  0  0  0  0  0  0  0  0  0
   -0.6220   -1.7673    0.8994 H   0  0  0  0  0  0  0  0  0  0  0  0
  1  2  1  0
  2  3  1  0
  3  4  2  0
  4  5  1  0
  5  6  1  0
  6  7  1  0
  7  8  1  0
  8  9  1  0
  9  2  1  0
  8  4  1  0
  1 10  1  0
  2 11  1  0
  3 12  1  0
  5 13  1  0
  5 14  1  0
  6 15  1  0
  6 16  1  0
  8 17  1  0
  9 18  1  0
  9 19  1  0
M  END
