
     RDKit          3D

 16 17  0  0  0  0  0  0  0  0999 V2000
   -1.7587    1.0769   -1.3011 O   0  0  0  0  0  0  0  0  0  0  0  0
   -1.1353    0.8252   -0.0703 C   0  0  0  0  0  0  0  0  0  0  0  0
   -0.9942   -0.6681    0.3163 C   0  0  0  0  0  0  0  0  0  0  0  0
   -1.5989   -1.5757   -0.5380 O   0  0  0  0  0  0  0  0  0  0  0  0
    0.1386    0.1398   -0.1081 C   0  0  0  0  0  0  0  0  0  0  0  0
    1.3160    0.4607    0.7356 C   0  0  0  0  0  0  0  0  0  0  0  0
    1.9829   -0.3620   -0.3692 C   0  0  0  0  0  0  0  0  0  0  0  0
    0.8941   -0.0881   -1.2220 O   0  0  0  0  0  0  0  0  0  0  0  0
   -2.4078    1.7893   -1.1447 H   0  0  0  0  0  0  0  0  0  0  0  0
   -1.3190    1.5251    0.7724 H   0  0  0  0  0  0  0  0  0  0  0  0
   -1.0709   -0.8997    1.4034 H   0  0  0  0  0  0  0  0  0  0  0  0
   -1.9143   -2.3892   -0.0602 H   0  0  0  0  0  0  0  0  0  0  0  0
    1.3587    0.0056    1.7335 H   0  0  0  0  0  0  0  0  0  0  0  0
    1.5891    1.5319    0.6614 H   0  0  0  0  0  0  0  0  0  0  0  0
    1.9857   -1.4460   -0.1420 H   0  0  0  0  0  0  0  0  0  0  0  0
    2.9341    0.0742   -0.6671 H   0  0  0  0  0  0  0  0  0  0  0  0
  1  2  1  0
  2  3  1  0
  3  4  1  0
  3  5  1  0
  5  6  1  0
  6  7  1  0
  7  8  1  0
  5  2  1  0
  8  5  1  0
  1  9  1  0
  2 10  1  0
  3 11  1  0
  4 12  1  0
  6 13  1  0
  6 14  1  0
  7 15  1  0
  7 16  1  0
M  END
