
     RDKit          3D

 21 22  0  0  0  0  0  0  0  0999 V2000
   -2.3355    1.2683    0.7964 O   0  0  0  0  0  0  0  0  0  0  0  0
   -1.4776    0.6561   -0.0574 C   0  0  0  0  0  0  0  0  0  0  0  0
   -0.0966    1.2487   -0.1125 C   0  0  0  0  0  0  0  0  0  0  0  0
    0.8224    0.1047   -0.3468 C   0  0  0  0  0  0  0  0  0  0  0  0
    2.2272    0.2058   -0.6556 C   0  0  0  0  0  0  0  0  0  0  0  0
    1.8670   -0.2557    0.7089 C   0  0  0  0  0  0  0  0  0  0  0  0
   -0.0616   -1.0561   -0.7151 C   0  0  0  0  0  0  0  0  0  0  0  0
   -1.1897   -0.7991    0.2980 C   0  0  0  0  0  0  0  0  0  0  0  0
   -2.2591   -1.6229    0.1127 O   0  0  0  0  0  0  0  0  0  0  0  0
   -1.9926    2.1074    1.1369 H   0  0  0  0  0  0  0  0  0  0  0  0
   -1.8648    0.6524   -1.1111 H   0  0  0  0  0  0  0  0  0  0  0  0
    0.1572    1.8484    0.7849 H   0  0  0  0  0  0  0  0  0  0  0  0
   -0.0257    1.9727   -0.9741 H   0  0  0  0  0  0  0  0  0  0  0  0
    2.7623   -0.5118   -1.2887 H   0  0  0  0  0  0  0  0  0  0  0  0
    2.6180    1.2562   -0.8059 H   0  0  0  0  0  0  0  0  0  0  0  0
    1.8387    0.4066    1.5771 H   0  0  0  0  0  0  0  0  0  0  0  0
    2.0335   -1.3198    0.9492 H   0  0  0  0  0  0  0  0  0  0  0  0
    0.3920   -2.0328   -0.5929 H   0  0  0  0  0  0  0  0  0  0  0  0
   -0.5155   -0.9196   -1.7378 H   0  0  0  0  0  0  0  0  0  0  0  0
   -0.7531   -0.8009    1.3075 H   0  0  0  0  0  0  0  0  0  0  0  0
   -2.1463   -2.4089    0.7263 H   0  0  0  0  0  0  0  0  0  0  0  0
  1  2  1  0
  2  3  1  0
  3  4  1  0
  4  5  1  0
  5  6  1  0
  4  7  1  0
  7  8  1  0
  8  9  1  0
  8  2  1  0
  6  4  1  0
  1 10  1  0
  2 11  1  0
  3 12  1  0
  3 13  1  0
  5 14  1  0
  5 15  1  0
  6 16  1  0
  6 17  1  0
  7 18  1  0
  7 19  1  0
  8 20  1  0
  9 21  1  0
M  END
