
     RDKit          3D

 18 19  0  0  0  0  0  0  0  0999 V2000
   -1.9566    0.3732   -1.0439 O   0  0  0  0  0  0  0  0  0  0  0  0
   -1.2538    0.2884    0.1594 C   0  0  0  0  0  0  0  0  0  0  0  0
   -0.1316    1.3158    0.1987 C   0  0  0  0  0  0  0  0  0  0  0  0
    1.0001    0.7584   -0.6243 C   0  0  0  0  0  0  0  0  0  0  0  0
    1.5960   -0.3860    0.1650 C   0  0  0  0  0  0  0  0  0  0  0  0
    0.5809   -1.3817    0.5881 C   0  0  0  0  0  0  0  0  0  0  0  0
   -0.1934   -1.8654   -0.5159 O   0  0  0  0  0  0  0  0  0  0  0  0
   -0.7895   -1.0877    0.4767 C   0  0  0  0  0  0  0  0  0  0  0  0
   -2.9108    0.6070   -0.9185 H   0  0  0  0  0  0  0  0  0  0  0  0
   -1.9767    0.6189    0.9585 H   0  0  0  0  0  0  0  0  0  0  0  0
   -0.5007    2.2827   -0.1332 H   0  0  0  0  0  0  0  0  0  0  0  0
    0.2067    1.3539    1.2581 H   0  0  0  0  0  0  0  0  0  0  0  0
    0.5759    0.3643   -1.5770 H   0  0  0  0  0  0  0  0  0  0  0  0
    1.7941    1.4941   -0.8379 H   0  0  0  0  0  0  0  0  0  0  0  0
    2.2102    0.0073    0.9858 H   0  0  0  0  0  0  0  0  0  0  0  0
    2.3092   -0.9000   -0.5326 H   0  0  0  0  0  0  0  0  0  0  0  0
    0.9465   -2.1443    1.3069 H   0  0  0  0  0  0  0  0  0  0  0  0
   -1.5067   -1.6989    1.0961 H   0  0  0  0  0  0  0  0  0  0  0  0
  1  2  1  0
  2  3  1  0
  3  4  1  0
  4  5  1  0
  5  6  1  0
  6  7  1  0
  7  8  1  0
  8  2  1  0
  8  6  1  0
  1  9  1  0
  2 10  1  0
  3 11  1  0
  3 12  1  0
  4 13  1  0
  4 14  1  0
  5 15  1  0
  5 16  1  0
  6 17  1  0
  8 18  1  0
M  END
