
     RDKit          3D

 21 21  0  0  0  0  0  0  0  0999 V2000
    1.5685   -2.0377   -0.1496 O   0  0  0  0  0  0  0  0  0  0  0  0
    0.6275   -1.0278   -0.4623 C   0  0  0  0  0  0  0  0  0  0  0  0
   -0.6777   -1.4016    0.1042 C   0  0  0  0  0  0  0  0  0  0  0  0
   -1.5293   -0.3171    0.6227 C   0  0  0  0  0  0  0  0  0  0  0  0
   -1.4719    0.9819   -0.0878 C   0  0  0  0  0  0  0  0  0  0  0  0
   -0.6283    0.9924   -1.1962 O   0  0  0  0  0  0  0  0  0  0  0  0
    0.6231    1.3980   -0.7560 C   0  0  0  0  0  0  0  0  0  0  0  0
    1.2081    0.2591    0.0471 C   0  0  0  0  0  0  0  0  0  0  0  0
    0.9746    0.4172    1.3913 O   0  0  0  0  0  0  0  0  0  0  0  0
    2.4624   -1.7495   -0.4299 H   0  0  0  0  0  0  0  0  0  0  0  0
    0.6112   -0.9568   -1.5791 H   0  0  0  0  0  0  0  0  0  0  0  0
   -1.2539   -1.9718   -0.6821 H   0  0  0  0  0  0  0  0  0  0  0  0
   -0.5317   -2.1565    0.9308 H   0  0  0  0  0  0  0  0  0  0  0  0
   -2.6021   -0.6722    0.5906 H   0  0  0  0  0  0  0  0  0  0  0  0
   -1.3396   -0.1642    1.7256 H   0  0  0  0  0  0  0  0  0  0  0  0
   -1.2167    1.8152    0.6294 H   0  0  0  0  0  0  0  0  0  0  0  0
   -2.4785    1.3006   -0.4940 H   0  0  0  0  0  0  0  0  0  0  0  0
    0.5622    2.3404   -0.1627 H   0  0  0  0  0  0  0  0  0  0  0  0
    1.2629    1.5943   -1.6495 H   0  0  0  0  0  0  0  0  0  0  0  0
    2.3045    0.2302   -0.1823 H   0  0  0  0  0  0  0  0  0  0  0  0
    1.5248    1.1261    1.7898 H   0  0  0  0  0  0  0  0  0  0  0  0
  1  2  1  0
  2  3  1  0
  3  4  1  0
  4  5  1  0
  5  6  1  0
  6  7  1  0
  7  8  1  0
  8  9  1  0
  8  2  1  0
  1 10  1  0
  2 11  1  0
  3 12  1  0
  3 13  1  0
  4 14  1  0
  4 15  1  0
  5 16  1  0
  5 17  1  0
  7 18  1  0
  7 19  1  0
  8 20  1  0
  9 21  1  0
M  END
