
     RDKit          3D

 19 19  0  0  0  0  0  0  0  0999 V2000
    1.8654   -1.4990    0.7078 O   0  0  0  0  0  0  0  0  0  0  0  0
    0.9514   -0.8923   -0.1381 C   0  0  0  0  0  0  0  0  0  0  0  0
   -0.4638   -1.3097    0.1143 C   0  0  0  0  0  0  0  0  0  0  0  0
   -1.3120   -0.0539    0.0656 C   0  0  0  0  0  0  0  0  0  0  0  0
   -2.2570   -0.2182   -0.9378 O   0  0  0  0  0  0  0  0  0  0  0  0
   -0.3862    1.0926   -0.2038 C   0  0  0  0  0  0  0  0  0  0  0  0
   -0.6576    2.2134    0.5600 O   0  0  0  0  0  0  0  0  0  0  0  0
    0.9915    0.5906    0.1358 C   0  0  0  0  0  0  0  0  0  0  0  0
    1.8878    1.2447   -0.7181 O   0  0  0  0  0  0  0  0  0  0  0  0
    1.4630   -2.0288    1.4267 H   0  0  0  0  0  0  0  0  0  0  0  0
    1.2815   -1.0670   -1.1778 H   0  0  0  0  0  0  0  0  0  0  0  0
   -0.7663   -2.0440   -0.6783 H   0  0  0  0  0  0  0  0  0  0  0  0
   -0.5872   -1.7762    1.1083 H   0  0  0  0  0  0  0  0  0  0  0  0
   -1.8334    0.1070    1.0459 H   0  0  0  0  0  0  0  0  0  0  0  0
   -2.8031    0.5690   -1.1133 H   0  0  0  0  0  0  0  0  0  0  0  0
   -0.4511    1.3373   -1.2853 H   0  0  0  0  0  0  0  0  0  0  0  0
   -0.1601    2.2327    1.4237 H   0  0  0  0  0  0  0  0  0  0  0  0
    1.2381    0.7763    1.2071 H   0  0  0  0  0  0  0  0  0  0  0  0
    1.9993    0.7254   -1.5428 H   0  0  0  0  0  0  0  0  0  0  0  0
  1  2  1  0
  2  3  1  0
  3  4  1  0
  4  5  1  0
  4  6  1  0
  6  7  1  0
  6  8  1  0
  8  9  1  0
  8  2  1  0
  1 10  1  0
  2 11  1  0
  3 12  1  0
  3 13  1  0
  4 14  1  0
  5 15  1  0
  6 16  1  0
  7 17  1  0
  8 18  1  0
  9 19  1  0
M  END
