
     RDKit          3D

 19 21  0  0  0  0  0  0  0  0999 V2000
    2.8447    0.6049   -0.2744 O   0  0  0  0  0  0  0  0  0  0  0  0
    1.8339    0.3981    0.6957 C   0  0  0  0  0  0  0  0  0  0  0  0
    1.0232   -0.7467    0.6663 C   0  0  0  0  0  0  0  0  0  0  0  0
   -0.3302   -1.1189    1.1605 C   0  0  0  0  0  0  0  0  0  0  0  0
   -1.0988   -0.9980   -0.1621 C   0  0  0  0  0  0  0  0  0  0  0  0
   -1.8949    0.1477   -0.5212 C   0  0  0  0  0  0  0  0  0  0  0  0
   -2.2431    1.0601    0.5031 O   0  0  0  0  0  0  0  0  0  0  0  0
   -0.3572    0.2369   -0.7925 C   0  0  0  0  0  0  0  0  0  0  0  0
    0.5154    0.7035    0.2793 C   0  0  0  0  0  0  0  0  0  0  0  0
    3.0377    1.5957   -0.3098 H   0  0  0  0  0  0  0  0  0  0  0  0
    2.2283    0.7408    1.6861 H   0  0  0  0  0  0  0  0  0  0  0  0
    1.2506   -1.4230   -0.2193 H   0  0  0  0  0  0  0  0  0  0  0  0
   -0.7056   -0.4295    1.9154 H   0  0  0  0  0  0  0  0  0  0  0  0
   -0.3603   -2.1783    1.5260 H   0  0  0  0  0  0  0  0  0  0  0  0
   -1.1405   -1.9055   -0.7570 H   0  0  0  0  0  0  0  0  0  0  0  0
   -2.5324    0.0799   -1.3968 H   0  0  0  0  0  0  0  0  0  0  0  0
   -1.9529    1.9502    0.1410 H   0  0  0  0  0  0  0  0  0  0  0  0
   -0.0362    0.0480   -1.8180 H   0  0  0  0  0  0  0  0  0  0  0  0
   -0.0817    1.2340    1.0861 H   0  0  0  0  0  0  0  0  0  0  0  0
  1  2  1  0
  2  3  1  0
  3  4  1  0
  4  5  1  0
  5  6  1  0
  6  7  1  0
  6  8  1  0
  8  9  1  0
  9  2  1  0
  9  3  1  0
  8  5  1  0
  1 10  1  0
  2 11  1  0
  3 12  1  0
  4 13  1  0
  4 14  1  0
  5 15  1  0
  6 16  1  0
  7 17  1  0
  8 18  1  0
  9 19  1  0
M  END
