
     RDKit          3D

 19 20  0  0  0  0  0  0  0  0999 V2000
    2.2163    0.1572   -0.9932 O   0  0  0  0  0  0  0  0  0  0  0  0
    1.4405    0.4942    0.1200 C   0  0  0  0  0  0  0  0  0  0  0  0
    1.0398   -0.7165    0.8884 C   0  0  0  0  0  0  0  0  0  0  0  0
   -0.0784   -1.4207    0.5767 C   0  0  0  0  0  0  0  0  0  0  0  0
   -0.7665   -0.8236   -0.5608 C   0  0  0  0  0  0  0  0  0  0  0  0
   -1.9585   -0.0893   -0.7065 C   0  0  0  0  0  0  0  0  0  0  0  0
   -0.9679    0.6300    0.0109 C   0  0  0  0  0  0  0  0  0  0  0  0
   -1.1882    0.7596    1.3881 O   0  0  0  0  0  0  0  0  0  0  0  0
    0.2679    1.3115   -0.3946 C   0  0  0  0  0  0  0  0  0  0  0  0
    2.3355   -0.8264   -1.0700 H   0  0  0  0  0  0  0  0  0  0  0  0
    2.0950    1.1166    0.7722 H   0  0  0  0  0  0  0  0  0  0  0  0
    1.6727   -1.0452    1.7329 H   0  0  0  0  0  0  0  0  0  0  0  0
   -0.3446   -2.2833    1.1402 H   0  0  0  0  0  0  0  0  0  0  0  0
   -0.1063   -0.9049   -1.4780 H   0  0  0  0  0  0  0  0  0  0  0  0
   -2.2308    0.2866   -1.7350 H   0  0  0  0  0  0  0  0  0  0  0  0
   -2.8848   -0.4126   -0.1892 H   0  0  0  0  0  0  0  0  0  0  0  0
   -1.2011   -0.0852    1.8612 H   0  0  0  0  0  0  0  0  0  0  0  0
    0.3049    2.3191    0.1134 H   0  0  0  0  0  0  0  0  0  0  0  0
    0.3544    1.5327   -1.4765 H   0  0  0  0  0  0  0  0  0  0  0  0
  1  2  1  0
  2  3  1  0
  3  4  2  0
  4  5  1  0
  5  6  1  0
  6  7  1  0
  7  8  1  0
  7  9  1  0
  9  2  1  0
  7  5  1  0
  1 10  1  0
  2 11  1  0
  3 12  1  0
  4 13  1  0
  5 14  1  0
  6 15  1  0
  6 16  1  0
  8 17  1  0
  9 18  1  0
  9 19  1  0
M  END
