
     RDKit          3D

 21 22  0  0  0  0  0  0  0  0999 V2000
   -1.7247    1.9335   -0.1045 O   0  0  0  0  0  0  0  0  0  0  0  0
   -1.0122    0.8624    0.4396 C   0  0  0  0  0  0  0  0  0  0  0  0
   -1.8997   -0.3092    0.8249 C   0  0  0  0  0  0  0  0  0  0  0  0
   -1.1578   -1.1383   -0.2059 C   0  0  0  0  0  0  0  0  0  0  0  0
   -0.3392    0.0710   -0.6200 C   0  0  0  0  0  0  0  0  0  0  0  0
    1.1185   -0.2158   -0.4652 C   0  0  0  0  0  0  0  0  0  0  0  0
    1.6190   -0.9776   -1.5503 O   0  0  0  0  0  0  0  0  0  0  0  0
    1.7776   -0.4064    0.8268 C   0  0  0  0  0  0  0  0  0  0  0  0
    2.0676    0.8147    0.0188 C   0  0  0  0  0  0  0  0  0  0  0  0
   -2.2721    1.5532   -0.8538 H   0  0  0  0  0  0  0  0  0  0  0  0
   -0.4339    1.1857    1.3052 H   0  0  0  0  0  0  0  0  0  0  0  0
   -2.9650   -0.1937    0.5662 H   0  0  0  0  0  0  0  0  0  0  0  0
   -1.7705   -0.6572    1.8743 H   0  0  0  0  0  0  0  0  0  0  0  0
   -0.5882   -1.9387    0.3057 H   0  0  0  0  0  0  0  0  0  0  0  0
   -1.8209   -1.5418   -0.9973 H   0  0  0  0  0  0  0  0  0  0  0  0
   -0.5849    0.3497   -1.6642 H   0  0  0  0  0  0  0  0  0  0  0  0
    1.3130   -0.5737   -2.4120 H   0  0  0  0  0  0  0  0  0  0  0  0
    1.2870   -0.2426    1.7990 H   0  0  0  0  0  0  0  0  0  0  0  0
    2.5559   -1.2187    0.8897 H   0  0  0  0  0  0  0  0  0  0  0  0
    1.7274    1.7862    0.4106 H   0  0  0  0  0  0  0  0  0  0  0  0
    3.1030    0.8572   -0.3876 H   0  0  0  0  0  0  0  0  0  0  0  0
  1  2  1  0
  2  3  1  0
  3  4  1  0
  4  5  1  0
  5  6  1  0
  6  7  1  0
  6  8  1  0
  8  9  1  0
  5  2  1  0
  9  6  1  0
  1 10  1  0
  2 11  1  0
  3 12  1  0
  3 13  1  0
  4 14  1  0
  4 15  1  0
  5 16  1  0
  7 17  1  0
  8 18  1  0
  8 19  1  0
  9 20  1  0
  9 21  1  0
M  END
