
     RDKit          3D

 19 21  0  0  0  0  0  0  0  0999 V2000
   -2.5557   -0.1764   -0.7337 O   0  0  0  0  0  0  0  0  0  0  0  0
   -1.4383   -0.4705    0.0750 C   0  0  0  0  0  0  0  0  0  0  0  0
   -0.9444    0.7533    0.7912 C   0  0  0  0  0  0  0  0  0  0  0  0
   -0.3620    1.1625   -0.5695 C   0  0  0  0  0  0  0  0  0  0  0  0
   -0.1221   -0.3492   -0.7035 C   0  0  0  0  0  0  0  0  0  0  0  0
    0.8894   -0.5616    0.3429 C   0  0  0  0  0  0  0  0  0  0  0  0
    2.2914   -0.5403    0.0277 C   0  0  0  0  0  0  0  0  0  0  0  0
    1.6033   -1.6706    0.5578 O   0  0  0  0  0  0  0  0  0  0  0  0
    0.2934    0.2597    1.4945 C   0  0  0  0  0  0  0  0  0  0  0  0
   -2.5865   -0.8801   -1.4372 H   0  0  0  0  0  0  0  0  0  0  0  0
   -1.4945   -1.3988    0.6374 H   0  0  0  0  0  0  0  0  0  0  0  0
   -1.6111    1.4142    1.2672 H   0  0  0  0  0  0  0  0  0  0  0  0
    0.5828    1.6793   -0.3877 H   0  0  0  0  0  0  0  0  0  0  0  0
   -1.0737    1.5816   -1.2693 H   0  0  0  0  0  0  0  0  0  0  0  0
   -0.0716   -0.7615   -1.6709 H   0  0  0  0  0  0  0  0  0  0  0  0
    2.9872   -0.0076    0.6777 H   0  0  0  0  0  0  0  0  0  0  0  0
    2.5796   -0.7184   -1.0496 H   0  0  0  0  0  0  0  0  0  0  0  0
    0.0176   -0.3654    2.3438 H   0  0  0  0  0  0  0  0  0  0  0  0
    1.0151    1.0497    1.7065 H   0  0  0  0  0  0  0  0  0  0  0  0
  1  2  1  0
  2  3  1  0
  3  4  1  0
  4  5  1  0
  5  6  1  0
  6  7  1  0
  7  8  1  0
  6  9  1  0
  5  2  1  0
  8  6  1  0
  9  3  1  0
  1 10  1  0
  2 11  1  0
  3 12  1  0
  4 13  1  0
  4 14  1  0
  5 15  1  0
  7 16  1  0
  7 17  1  0
  9 18  1  0
  9 19  1  0
M  END
