
     RDKit          3D

 19 21  0  0  0  0  0  0  0  0999 V2000
    2.1037    1.2557   -0.7050 O   0  0  0  0  0  0  0  0  0  0  0  0
    1.3438    0.3002   -0.0515 C   0  0  0  0  0  0  0  0  0  0  0  0
    0.7114    0.7957    1.2146 C   0  0  0  0  0  0  0  0  0  0  0  0
   -0.7405    0.3592    1.1060 C   0  0  0  0  0  0  0  0  0  0  0  0
   -1.0272   -0.9691    0.5366 C   0  0  0  0  0  0  0  0  0  0  0  0
   -0.2429   -1.5801   -0.5664 C   0  0  0  0  0  0  0  0  0  0  0  0
    0.2376   -0.1965   -0.9498 C   0  0  0  0  0  0  0  0  0  0  0  0
   -1.0091    0.3370   -0.3040 C   0  0  0  0  0  0  0  0  0  0  0  0
   -2.1566    0.5536   -0.9670 O   0  0  0  0  0  0  0  0  0  0  0  0
    2.9864    0.9117   -0.9948 H   0  0  0  0  0  0  0  0  0  0  0  0
    2.0173   -0.5484    0.2345 H   0  0  0  0  0  0  0  0  0  0  0  0
    0.7984    1.9003    1.2286 H   0  0  0  0  0  0  0  0  0  0  0  0
    1.1460    0.3923    2.1309 H   0  0  0  0  0  0  0  0  0  0  0  0
   -1.4552    0.7753    1.8085 H   0  0  0  0  0  0  0  0  0  0  0  0
   -1.9937   -1.4157    0.7593 H   0  0  0  0  0  0  0  0  0  0  0  0
   -0.9305   -1.9471   -1.3821 H   0  0  0  0  0  0  0  0  0  0  0  0
    0.5245   -2.3107   -0.3292 H   0  0  0  0  0  0  0  0  0  0  0  0
    0.3239    0.0174   -2.0111 H   0  0  0  0  0  0  0  0  0  0  0  0
   -2.6374    1.3694   -0.7584 H   0  0  0  0  0  0  0  0  0  0  0  0
  1  2  1  0
  2  3  1  0
  3  4  1  0
  4  5  1  0
  5  6  1  0
  6  7  1  0
  7  8  1  0
  8  9  1  0
  7  2  1  0
  8  4  1  0
  8  5  1  0
  1 10  1  0
  2 11  1  0
  3 12  1  0
  3 13  1  0
  4 14  1  0
  5 15  1  0
  6 16  1  0
  6 17  1  0
  7 18  1  0
  9 19  1  0
M  END
