
     RDKit          3D

 19 21  0  0  0  0  0  0  0  0999 V2000
   -0.9334    0.6993    2.1041 O   0  0  0  0  0  0  0  0  0  0  0  0
   -1.1267    0.6965    0.7302 C   0  0  0  0  0  0  0  0  0  0  0  0
   -1.7246   -0.5661    0.1654 C   0  0  0  0  0  0  0  0  0  0  0  0
   -0.4223   -1.2166    0.5602 C   0  0  0  0  0  0  0  0  0  0  0  0
   -0.0089    0.1009   -0.0544 C   0  0  0  0  0  0  0  0  0  0  0  0
    1.2604    0.5926   -0.2083 C   0  0  0  0  0  0  0  0  0  0  0  0
    2.3957    0.0037   -0.9952 C   0  0  0  0  0  0  0  0  0  0  0  0
    2.3283   -0.2076    0.4060 O   0  0  0  0  0  0  0  0  0  0  0  0
   -1.0338   -0.1907   -1.1156 C   0  0  0  0  0  0  0  0  0  0  0  0
   -0.7245    1.6216    2.3792 H   0  0  0  0  0  0  0  0  0  0  0  0
   -1.5751    1.6306    0.3184 H   0  0  0  0  0  0  0  0  0  0  0  0
   -2.6477   -0.9187    0.2929 H   0  0  0  0  0  0  0  0  0  0  0  0
   -0.1343   -2.1177    0.0235 H   0  0  0  0  0  0  0  0  0  0  0  0
   -0.2256   -1.1972    1.6581 H   0  0  0  0  0  0  0  0  0  0  0  0
    1.4825    1.6675    0.0827 H   0  0  0  0  0  0  0  0  0  0  0  0
    2.1093   -0.8693   -1.6318 H   0  0  0  0  0  0  0  0  0  0  0  0
    3.2616    0.6183   -1.2918 H   0  0  0  0  0  0  0  0  0  0  0  0
   -1.4794    0.6665   -1.6175 H   0  0  0  0  0  0  0  0  0  0  0  0
   -0.8013   -1.0135   -1.8062 H   0  0  0  0  0  0  0  0  0  0  0  0
  1  2  1  0
  2  3  1  0
  3  4  1  0
  4  5  1  0
  5  6  1  0
  6  7  1  0
  7  8  1  0
  5  9  1  0
  5  2  1  0
  8  6  1  0
  9  3  1  0
  1 10  1  0
  2 11  1  0
  3 12  1  0
  4 13  1  0
  4 14  1  0
  6 15  1  0
  7 16  1  0
  7 17  1  0
  9 18  1  0
  9 19  1  0
M  END
