
     RDKit          3D

 16 18  0  0  0  0  0  0  0  0999 V2000
    1.9656    1.2945    1.0182 O   0  0  0  0  0  0  0  0  0  0  0  0
    1.6229    0.5143   -0.1171 C   0  0  0  0  0  0  0  0  0  0  0  0
    0.3989    0.7000   -0.8055 C   0  0  0  0  0  0  0  0  0  0  0  0
   -0.5724   -0.3684   -1.3422 C   0  0  0  0  0  0  0  0  0  0  0  0
   -0.7879   -0.5268    0.1472 C   0  0  0  0  0  0  0  0  0  0  0  0
   -1.7089   -0.0689    0.9876 C   0  0  0  0  0  0  0  0  0  0  0  0
   -1.5595   -1.4608    0.7083 O   0  0  0  0  0  0  0  0  0  0  0  0
    0.7116   -0.5550    0.1213 C   0  0  0  0  0  0  0  0  0  0  0  0
    2.3358    0.7597    1.7363 H   0  0  0  0  0  0  0  0  0  0  0  0
    2.5517    0.4021   -0.7574 H   0  0  0  0  0  0  0  0  0  0  0  0
   -0.2743    1.4704   -0.3044 H   0  0  0  0  0  0  0  0  0  0  0  0
   -1.3779    0.0695   -1.9212 H   0  0  0  0  0  0  0  0  0  0  0  0
   -0.0749   -1.2629   -1.7440 H   0  0  0  0  0  0  0  0  0  0  0  0
   -1.5358    0.1285    2.0730 H   0  0  0  0  0  0  0  0  0  0  0  0
   -2.6894    0.3941    0.6678 H   0  0  0  0  0  0  0  0  0  0  0  0
    0.9945   -1.4901   -0.4680 H   0  0  0  0  0  0  0  0  0  0  0  0
  1  2  1  0
  2  3  1  0
  3  4  1  0
  4  5  1  0
  5  6  1  0
  6  7  1  0
  5  8  1  0
  8  2  1  0
  8  3  1  0
  7  5  1  0
  1  9  1  0
  2 10  1  0
  3 11  1  0
  4 12  1  0
  4 13  1  0
  6 14  1  0
  6 15  1  0
  8 16  1  0
M  END
