
     RDKit          3D

 19 20  0  0  0  0  0  0  0  0999 V2000
    2.6598    0.6403    0.1667 O   0  0  0  0  0  0  0  0  0  0  0  0
    1.4956    0.3360   -0.4966 C   0  0  0  0  0  0  0  0  0  0  0  0
    1.0087   -1.0969   -0.3414 C   0  0  0  0  0  0  0  0  0  0  0  0
   -0.2237   -0.5889    0.3161 C   0  0  0  0  0  0  0  0  0  0  0  0
   -0.4974   -1.0554    1.5915 O   0  0  0  0  0  0  0  0  0  0  0  0
   -1.4691   -0.5317   -0.5549 C   0  0  0  0  0  0  0  0  0  0  0  0
   -1.8132    0.9505   -0.3445 C   0  0  0  0  0  0  0  0  0  0  0  0
   -0.5725    1.5228   -0.6120 O   0  0  0  0  0  0  0  0  0  0  0  0
    0.2675    0.8274    0.2281 C   0  0  0  0  0  0  0  0  0  0  0  0
    2.4986    0.7019    1.1326 H   0  0  0  0  0  0  0  0  0  0  0  0
    1.5356    0.6064   -1.5746 H   0  0  0  0  0  0  0  0  0  0  0  0
    1.6446   -1.6459    0.4061 H   0  0  0  0  0  0  0  0  0  0  0  0
    0.9058   -1.6682   -1.2649 H   0  0  0  0  0  0  0  0  0  0  0  0
    0.2923   -0.7991    2.1552 H   0  0  0  0  0  0  0  0  0  0  0  0
   -1.2505   -0.6773   -1.6212 H   0  0  0  0  0  0  0  0  0  0  0  0
   -2.2996   -1.1138   -0.1670 H   0  0  0  0  0  0  0  0  0  0  0  0
   -2.6140    1.2894   -0.9875 H   0  0  0  0  0  0  0  0  0  0  0  0
   -1.9887    1.0579    0.7401 H   0  0  0  0  0  0  0  0  0  0  0  0
    0.4202    1.2447    1.2281 H   0  0  0  0  0  0  0  0  0  0  0  0
  1  2  1  0
  2  3  1  0
  3  4  1  0
  4  5  1  0
  4  6  1  0
  6  7  1  0
  7  8  1  0
  8  9  1  0
  9  2  1  0
  9  4  1  0
  1 10  1  0
  2 11  1  0
  3 12  1  0
  3 13  1  0
  5 14  1  0
  6 15  1  0
  6 16  1  0
  7 17  1  0
  7 18  1  0
  9 19  1  0
M  END
