
     RDKit          3D

 19 20  0  0  0  0  0  0  0  0999 V2000
    1.2786    1.1996   -1.4262 O   0  0  0  0  0  0  0  0  0  0  0  0
    1.4113    0.1105   -0.6122 C   0  0  0  0  0  0  0  0  0  0  0  0
    0.9058    0.2944    0.8210 C   0  0  0  0  0  0  0  0  0  0  0  0
   -0.3154    1.1661    0.7924 C   0  0  0  0  0  0  0  0  0  0  0  0
   -1.5322    0.8826    0.3408 C   0  0  0  0  0  0  0  0  0  0  0  0
   -1.8689   -0.2788   -0.5634 C   0  0  0  0  0  0  0  0  0  0  0  0
   -0.7912   -0.5919   -1.3264 O   0  0  0  0  0  0  0  0  0  0  0  0
    0.3584   -0.9709   -0.7545 C   0  0  0  0  0  0  0  0  0  0  0  0
    0.4151   -1.1547    0.7142 C   0  0  0  0  0  0  0  0  0  0  0  0
    2.2116    1.5243   -1.6378 H   0  0  0  0  0  0  0  0  0  0  0  0
    2.4262   -0.3304   -0.5809 H   0  0  0  0  0  0  0  0  0  0  0  0
    1.6443    0.4998    1.5777 H   0  0  0  0  0  0  0  0  0  0  0  0
   -0.2006    2.1825    1.1986 H   0  0  0  0  0  0  0  0  0  0  0  0
   -2.3621    1.5252    0.6343 H   0  0  0  0  0  0  0  0  0  0  0  0
   -2.6814    0.0779   -1.2264 H   0  0  0  0  0  0  0  0  0  0  0  0
   -2.2918   -1.1224    0.0243 H   0  0  0  0  0  0  0  0  0  0  0  0
    0.8005   -1.8726   -1.2710 H   0  0  0  0  0  0  0  0  0  0  0  0
   -0.5400   -1.2419    1.2539 H   0  0  0  0  0  0  0  0  0  0  0  0
    1.1319   -1.8994    1.0831 H   0  0  0  0  0  0  0  0  0  0  0  0
  1  2  1  0
  2  3  1  0
  3  4  1  0
  4  5  2  0
  5  6  1  0
  6  7  1  0
  7  8  1  0
  8  9  1  0
  8  2  1  0
  9  3  1  0
  1 10  1  0
  2 11  1  0
  3 12  1  0
  4 13  1  0
  5 14  1  0
  6 15  1  0
  6 16  1  0
  8 17  1  0
  9 18  1  0
  9 19  1  0
M  END
