
     RDKit          3D

 15 16  0  0  0  0  0  0  0  0999 V2000
   -1.6136    1.3057    0.6846 O   0  0  0  0  0  0  0  0  0  0  0  0
   -1.0983    0.0195    0.7353 C   0  0  0  0  0  0  0  0  0  0  0  0
   -1.5948   -0.8391   -0.4058 C   0  0  0  0  0  0  0  0  0  0  0  0
   -0.8855   -0.2274   -1.4928 O   0  0  0  0  0  0  0  0  0  0  0  0
    0.4129   -0.0446   -1.0063 C   0  0  0  0  0  0  0  0  0  0  0  0
    1.6756    0.0328   -1.3702 O   0  0  0  0  0  0  0  0  0  0  0  0
    2.4536    0.2314   -0.3360 C   0  0  0  0  0  0  0  0  0  0  0  0
    1.6431    0.2870    0.7747 C   0  0  0  0  0  0  0  0  0  0  0  0
    0.3515    0.1164    0.3846 C   0  0  0  0  0  0  0  0  0  0  0  0
   -1.7455    1.5046   -0.2893 H   0  0  0  0  0  0  0  0  0  0  0  0
   -1.2706   -0.4897    1.6871 H   0  0  0  0  0  0  0  0  0  0  0  0
   -2.6694   -0.8174   -0.5417 H   0  0  0  0  0  0  0  0  0  0  0  0
   -1.1669   -1.8535   -0.2677 H   0  0  0  0  0  0  0  0  0  0  0  0
    3.5402    0.3352   -0.3389 H   0  0  0  0  0  0  0  0  0  0  0  0
    1.9678    0.4390    1.7824 H   0  0  0  0  0  0  0  0  0  0  0  0
  1  2  1  0
  2  3  1  0
  3  4  1  0
  4  5  1  0
  5  6  1  0
  6  7  1  0
  7  8  2  0
  8  9  1  0
  9  2  1  0
  9  5  2  0
  1 10  1  0
  2 11  1  0
  3 12  1  0
  3 13  1  0
  7 14  1  0
  8 15  1  0
M  END
