
     RDKit          3D

 17 18  0  0  0  0  0  0  0  0999 V2000
    1.2628    0.1907   -1.6279 O   0  0  0  0  0  0  0  0  0  0  0  0
    1.4411   -0.3497   -0.3561 C   0  0  0  0  0  0  0  0  0  0  0  0
    0.2826   -1.1764    0.1787 C   0  0  0  0  0  0  0  0  0  0  0  0
   -0.7722   -1.3449   -0.6325 O   0  0  0  0  0  0  0  0  0  0  0  0
   -1.8524   -0.5137   -0.4604 C   0  0  0  0  0  0  0  0  0  0  0  0
   -1.4958    0.8821   -0.1545 C   0  0  0  0  0  0  0  0  0  0  0  0
   -0.3520    1.2188    0.4313 C   0  0  0  0  0  0  0  0  0  0  0  0
    0.5686    0.1109    0.7712 C   0  0  0  0  0  0  0  0  0  0  0  0
    1.0491    0.1464    2.0671 O   0  0  0  0  0  0  0  0  0  0  0  0
    2.1142    0.3884   -2.0895 H   0  0  0  0  0  0  0  0  0  0  0  0
    2.4660   -0.6038   -0.0818 H   0  0  0  0  0  0  0  0  0  0  0  0
    0.6276   -2.0884    0.7400 H   0  0  0  0  0  0  0  0  0  0  0  0
   -2.3888   -0.5001   -1.4494 H   0  0  0  0  0  0  0  0  0  0  0  0
   -2.5939   -0.8867    0.2683 H   0  0  0  0  0  0  0  0  0  0  0  0
   -2.1792    1.6843   -0.4086 H   0  0  0  0  0  0  0  0  0  0  0  0
   -0.1083    2.2523    0.6477 H   0  0  0  0  0  0  0  0  0  0  0  0
    1.9306    0.5898    2.1563 H   0  0  0  0  0  0  0  0  0  0  0  0
  1  2  1  0
  2  3  1  0
  3  4  1  0
  4  5  1  0
  5  6  1  0
  6  7  2  0
  7  8  1  0
  8  9  1  0
  8  2  1  0
  8  3  1  0
  1 10  1  0
  2 11  1  0
  3 12  1  0
  5 13  1  0
  5 14  1  0
  6 15  1  0
  7 16  1  0
  9 17  1  0
M  END
