
     RDKit          3D

 19 21  0  0  0  0  0  0  0  0999 V2000
    2.2555   -1.0933    0.2504 O   0  0  0  0  0  0  0  0  0  0  0  0
    1.4034   -0.1775   -0.3151 C   0  0  0  0  0  0  0  0  0  0  0  0
    0.5200    0.5076    0.7514 C   0  0  0  0  0  0  0  0  0  0  0  0
   -0.2143    1.3977   -0.2741 C   0  0  0  0  0  0  0  0  0  0  0  0
   -0.8751    0.1884   -0.9727 C   0  0  0  0  0  0  0  0  0  0  0  0
   -1.7061   -0.2117    0.2671 C   0  0  0  0  0  0  0  0  0  0  0  0
   -0.4317   -0.5963    1.0558 C   0  0  0  0  0  0  0  0  0  0  0  0
   -0.0934   -1.6722    0.1884 O   0  0  0  0  0  0  0  0  0  0  0  0
    0.1735   -0.8658   -0.9542 C   0  0  0  0  0  0  0  0  0  0  0  0
    2.6952   -0.6290    1.0327 H   0  0  0  0  0  0  0  0  0  0  0  0
    1.8582    0.5413   -0.9886 H   0  0  0  0  0  0  0  0  0  0  0  0
    1.0269    1.0047    1.5119 H   0  0  0  0  0  0  0  0  0  0  0  0
   -0.9512    2.0372    0.2081 H   0  0  0  0  0  0  0  0  0  0  0  0
    0.4872    1.9078   -0.9384 H   0  0  0  0  0  0  0  0  0  0  0  0
   -1.4153    0.3975   -1.8359 H   0  0  0  0  0  0  0  0  0  0  0  0
   -2.2142    0.6373    0.7080 H   0  0  0  0  0  0  0  0  0  0  0  0
   -2.2987   -1.1044    0.0837 H   0  0  0  0  0  0  0  0  0  0  0  0
   -0.6051   -0.8673    2.0596 H   0  0  0  0  0  0  0  0  0  0  0  0
    0.3853   -1.4019   -1.8381 H   0  0  0  0  0  0  0  0  0  0  0  0
  1  2  1  0
  2  3  1  0
  3  4  1  0
  4  5  1  0
  5  6  1  0
  6  7  1  0
  7  8  1  0
  8  9  1  0
  9  2  1  0
  7  3  1  0
  9  5  1  0
  1 10  1  0
  2 11  1  0
  3 12  1  0
  4 13  1  0
  4 14  1  0
  5 15  1  0
  6 16  1  0
  6 17  1  0
  7 18  1  0
  9 19  1  0
M  END
