
     RDKit          3D

 19 19  0  0  0  0  0  0  0  0999 V2000
    2.4750   -0.4752   -0.6133 O   0  0  0  0  0  0  0  0  0  0  0  0
    1.1683   -0.0772   -0.5252 C   0  0  0  0  0  0  0  0  0  0  0  0
    1.0000    1.2904    0.0183 C   0  0  0  0  0  0  0  0  0  0  0  0
   -0.1505    1.8762    0.2859 C   0  0  0  0  0  0  0  0  0  0  0  0
   -1.5246    1.3615    0.1276 C   0  0  0  0  0  0  0  0  0  0  0  0
   -1.8516    0.1006   -0.1004 C   0  0  0  0  0  0  0  0  0  0  0  0
   -1.0436   -1.1298   -0.2637 C   0  0  0  0  0  0  0  0  0  0  0  0
    0.3346   -1.0039    0.3466 C   0  0  0  0  0  0  0  0  0  0  0  0
    0.9080   -2.2467    0.4808 O   0  0  0  0  0  0  0  0  0  0  0  0
    3.0853    0.3088   -0.6279 H   0  0  0  0  0  0  0  0  0  0  0  0
    0.7384   -0.1250   -1.5665 H   0  0  0  0  0  0  0  0  0  0  0  0
    1.9050    1.8418    0.2061 H   0  0  0  0  0  0  0  0  0  0  0  0
   -0.1044    2.8928    0.6844 H   0  0  0  0  0  0  0  0  0  0  0  0
   -2.3402    2.0654    0.2025 H   0  0  0  0  0  0  0  0  0  0  0  0
   -2.9158   -0.0835   -0.1871 H   0  0  0  0  0  0  0  0  0  0  0  0
   -0.8828   -1.3450   -1.3544 H   0  0  0  0  0  0  0  0  0  0  0  0
   -1.5482   -2.0164    0.1949 H   0  0  0  0  0  0  0  0  0  0  0  0
    0.2290   -0.5728    1.3797 H   0  0  0  0  0  0  0  0  0  0  0  0
    0.5181   -2.6620    1.3116 H   0  0  0  0  0  0  0  0  0  0  0  0
  1  2  1  0
  2  3  1  0
  3  4  2  0
  4  5  1  0
  5  6  2  0
  6  7  1  0
  7  8  1  0
  8  9  1  0
  8  2  1  0
  1 10  1  0
  2 11  1  0
  3 12  1  0
  4 13  1  0
  5 14  1  0
  6 15  1  0
  7 16  1  0
  7 17  1  0
  8 18  1  0
  9 19  1  0
M  END
