
     RDKit          3D

 21 23  0  0  0  0  0  0  0  0999 V2000
    0.6223    1.2119   -1.7611 O   0  0  0  0  0  0  0  0  0  0  0  0
    0.8978    0.6672   -0.5346 C   0  0  0  0  0  0  0  0  0  0  0  0
    1.6595   -0.6651   -0.5732 C   0  0  0  0  0  0  0  0  0  0  0  0
    2.1170   -1.1239    0.7444 C   0  0  0  0  0  0  0  0  0  0  0  0
    0.6708   -1.1880    0.5158 C   0  0  0  0  0  0  0  0  0  0  0  0
   -0.1882   -0.0529    0.1609 C   0  0  0  0  0  0  0  0  0  0  0  0
   -1.3881   -0.2965   -0.6992 C   0  0  0  0  0  0  0  0  0  0  0  0
   -2.1288    0.7507    0.1349 C   0  0  0  0  0  0  0  0  0  0  0  0
   -1.0047    0.6215    1.1700 C   0  0  0  0  0  0  0  0  0  0  0  0
    0.5357    2.2077   -1.6262 H   0  0  0  0  0  0  0  0  0  0  0  0
    1.5079    1.3642    0.0983 H   0  0  0  0  0  0  0  0  0  0  0  0
    1.6622   -1.2551   -1.4809 H   0  0  0  0  0  0  0  0  0  0  0  0
    2.6840   -2.0600    0.7771 H   0  0  0  0  0  0  0  0  0  0  0  0
    2.5753   -0.3283    1.3944 H   0  0  0  0  0  0  0  0  0  0  0  0
    0.2420   -2.1989    0.3290 H   0  0  0  0  0  0  0  0  0  0  0  0
   -1.8607   -1.3004   -0.6090 H   0  0  0  0  0  0  0  0  0  0  0  0
   -1.2385    0.0411   -1.7350 H   0  0  0  0  0  0  0  0  0  0  0  0
   -3.1080    0.3848    0.4792 H   0  0  0  0  0  0  0  0  0  0  0  0
   -2.2123    1.7291   -0.3375 H   0  0  0  0  0  0  0  0  0  0  0  0
   -1.3578   -0.0881    1.9690 H   0  0  0  0  0  0  0  0  0  0  0  0
   -0.6874    1.5789    1.5837 H   0  0  0  0  0  0  0  0  0  0  0  0
  1  2  1  0
  2  3  1  0
  3  4  1  0
  4  5  1  0
  5  6  1  0
  6  7  1  0
  7  8  1  0
  8  9  1  0
  6  2  1  0
  5  3  1  0
  9  6  1  0
  1 10  1  0
  2 11  1  0
  3 12  1  0
  4 13  1  0
  4 14  1  0
  5 15  1  0
  7 16  1  0
  7 17  1  0
  8 18  1  0
  8 19  1  0
  9 20  1  0
  9 21  1  0
M  END
