
     RDKit          3D

 19 20  0  0  0  0  0  0  0  0999 V2000
    2.0295   -1.3199    0.0557 O   0  0  0  0  0  0  0  0  0  0  0  0
    0.8558   -0.7382   -0.3870 C   0  0  0  0  0  0  0  0  0  0  0  0
   -0.3190   -1.0679    0.5434 C   0  0  0  0  0  0  0  0  0  0  0  0
   -1.6188   -0.6830   -0.0823 C   0  0  0  0  0  0  0  0  0  0  0  0
   -1.6195    0.7789   -0.3714 C   0  0  0  0  0  0  0  0  0  0  0  0
   -0.4365    1.3723   -0.4915 C   0  0  0  0  0  0  0  0  0  0  0  0
    0.7295    0.6816    0.1278 C   0  0  0  0  0  0  0  0  0  0  0  0
    1.8783    1.3972    0.2512 O   0  0  0  0  0  0  0  0  0  0  0  0
    0.1868    0.0691    1.4294 C   0  0  0  0  0  0  0  0  0  0  0  0
    2.3912   -0.8666    0.8408 H   0  0  0  0  0  0  0  0  0  0  0  0
    0.6196   -0.8765   -1.4592 H   0  0  0  0  0  0  0  0  0  0  0  0
   -0.2597   -2.0410    1.0332 H   0  0  0  0  0  0  0  0  0  0  0  0
   -2.4219   -0.9198    0.6539 H   0  0  0  0  0  0  0  0  0  0  0  0
   -1.8113   -1.2774   -1.0195 H   0  0  0  0  0  0  0  0  0  0  0  0
   -2.5640    1.3435   -0.4809 H   0  0  0  0  0  0  0  0  0  0  0  0
   -0.3079    2.2968   -1.0019 H   0  0  0  0  0  0  0  0  0  0  0  0
    2.3286    1.4417   -0.6228 H   0  0  0  0  0  0  0  0  0  0  0  0
   -0.6191    0.6325    1.8991 H   0  0  0  0  0  0  0  0  0  0  0  0
    0.9586   -0.2232    2.1485 H   0  0  0  0  0  0  0  0  0  0  0  0
  1  2  1  0
  2  3  1  0
  3  4  1  0
  4  5  1  0
  5  6  2  0
  6  7  1  0
  7  8  1  0
  7  9  1  0
  7  2  1  0
  9  3  1  0
  1 10  1  0
  2 11  1  0
  3 12  1  0
  4 13  1  0
  4 14  1  0
  5 15  1  0
  6 16  1  0
  8 17  1  0
  9 18  1  0
  9 19  1  0
M  END
