
     RDKit          3D

 16 18  0  0  0  0  0  0  0  0999 V2000
    2.1862   -0.3602    0.7359 O   0  0  0  0  0  0  0  0  0  0  0  0
    1.5397   -0.2668   -0.5003 C   0  0  0  0  0  0  0  0  0  0  0  0
    0.4409    0.6986   -0.5780 C   0  0  0  0  0  0  0  0  0  0  0  0
   -0.4380    0.8953    0.6420 C   0  0  0  0  0  0  0  0  0  0  0  0
   -1.7039    0.1933    0.2456 C   0  0  0  0  0  0  0  0  0  0  0  0
   -0.7822   -0.9722    0.4291 C   0  0  0  0  0  0  0  0  0  0  0  0
   -0.1589   -0.2144    1.4453 O   0  0  0  0  0  0  0  0  0  0  0  0
    0.1949   -0.8481   -0.7055 C   0  0  0  0  0  0  0  0  0  0  0  0
    2.6194    0.5430    0.8715 H   0  0  0  0  0  0  0  0  0  0  0  0
    2.2316   -0.3484   -1.3543 H   0  0  0  0  0  0  0  0  0  0  0  0
    0.1465    1.2482   -1.4676 H   0  0  0  0  0  0  0  0  0  0  0  0
   -0.4823    1.8592    1.0931 H   0  0  0  0  0  0  0  0  0  0  0  0
   -1.9685    0.4379   -0.8055 H   0  0  0  0  0  0  0  0  0  0  0  0
   -2.5467    0.2782    0.9349 H   0  0  0  0  0  0  0  0  0  0  0  0
   -1.1708   -1.9281    0.6944 H   0  0  0  0  0  0  0  0  0  0  0  0
   -0.1077   -1.2156   -1.6805 H   0  0  0  0  0  0  0  0  0  0  0  0
  1  2  1  0
  2  3  1  0
  3  4  1  0
  4  5  1  0
  5  6  1  0
  6  7  1  0
  6  8  1  0
  8  2  1  0
  8  3  1  0
  7  4  1  0
  1  9  1  0
  2 10  1  0
  3 11  1  0
  4 12  1  0
  5 13  1  0
  5 14  1  0
  6 15  1  0
  8 16  1  0
M  END
