
     RDKit          3D

 18 18  0  0  0  0  0  0  0  0999 V2000
    2.1678   -0.1373   -0.7836 O   0  0  0  0  0  0  0  0  0  0  0  0
    1.3598   -0.0982    0.3765 C   0  0  0  0  0  0  0  0  0  0  0  0
    0.6937    1.2012    0.5395 C   0  0  0  0  0  0  0  0  0  0  0  0
   -0.6370    1.3591   -0.0196 C   0  0  0  0  0  0  0  0  0  0  0  0
   -1.5548    0.5311   -0.5058 C   0  0  0  0  0  0  0  0  0  0  0  0
   -1.4533   -0.9253   -0.6184 C   0  0  0  0  0  0  0  0  0  0  0  0
   -0.1836   -1.4095   -0.7778 O   0  0  0  0  0  0  0  0  0  0  0  0
    0.4628   -1.2994    0.4495 C   0  0  0  0  0  0  0  0  0  0  0  0
    1.6938    0.2029   -1.5729 H   0  0  0  0  0  0  0  0  0  0  0  0
    2.0959   -0.2244    1.2256 H   0  0  0  0  0  0  0  0  0  0  0  0
    1.3544    1.9965    0.0817 H   0  0  0  0  0  0  0  0  0  0  0  0
    0.6522    1.4954    1.6296 H   0  0  0  0  0  0  0  0  0  0  0  0
   -0.9678    2.4006   -0.0509 H   0  0  0  0  0  0  0  0  0  0  0  0
   -2.4792    0.9512   -0.8609 H   0  0  0  0  0  0  0  0  0  0  0  0
   -1.8823   -1.3605    0.3280 H   0  0  0  0  0  0  0  0  0  0  0  0
   -2.1208   -1.3384   -1.4290 H   0  0  0  0  0  0  0  0  0  0  0  0
   -0.2429   -1.1359    1.2858 H   0  0  0  0  0  0  0  0  0  0  0  0
    1.0412   -2.2091    0.7030 H   0  0  0  0  0  0  0  0  0  0  0  0
  1  2  1  0
  2  3  1  0
  3  4  1  0
  4  5  2  0
  5  6  1  0
  6  7  1  0
  7  8  1  0
  8  2  1  0
  1  9  1  0
  2 10  1  0
  3 11  1  0
  3 12  1  0
  4 13  1  0
  5 14  1  0
  6 15  1  0
  6 16  1  0
  8 17  1  0
  8 18  1  0
M  END
