
     RDKit          3D

 19 21  0  0  0  0  0  0  0  0999 V2000
    2.9608    1.0855   -0.4409 O   0  0  0  0  0  0  0  0  0  0  0  0
    1.9647    0.2722    0.0476 C   0  0  0  0  0  0  0  0  0  0  0  0
    1.0027   -0.3325   -0.8842 C   0  0  0  0  0  0  0  0  0  0  0  0
   -0.0414   -1.2382   -0.2140 C   0  0  0  0  0  0  0  0  0  0  0  0
   -0.8583   -1.7838   -1.1748 O   0  0  0  0  0  0  0  0  0  0  0  0
   -0.6074   -0.0068    0.3793 C   0  0  0  0  0  0  0  0  0  0  0  0
   -1.9663    0.4489    0.0449 C   0  0  0  0  0  0  0  0  0  0  0  0
   -1.5152    0.0925    1.4818 C   0  0  0  0  0  0  0  0  0  0  0  0
    0.6004    0.7979    0.1246 C   0  0  0  0  0  0  0  0  0  0  0  0
    3.0159    1.9644    0.0230 H   0  0  0  0  0  0  0  0  0  0  0  0
    2.3242   -0.4171    0.8662 H   0  0  0  0  0  0  0  0  0  0  0  0
    0.8844   -0.0610   -1.9268 H   0  0  0  0  0  0  0  0  0  0  0  0
    0.4177   -1.9742    0.4980 H   0  0  0  0  0  0  0  0  0  0  0  0
   -0.3402   -2.0439   -1.9821 H   0  0  0  0  0  0  0  0  0  0  0  0
   -2.7042   -0.2798   -0.3930 H   0  0  0  0  0  0  0  0  0  0  0  0
   -2.0741    1.5143   -0.2041 H   0  0  0  0  0  0  0  0  0  0  0  0
   -1.5128    0.9686    2.1562 H   0  0  0  0  0  0  0  0  0  0  0  0
   -1.9617   -0.8048    1.9432 H   0  0  0  0  0  0  0  0  0  0  0  0
    0.4108    1.7978   -0.3448 H   0  0  0  0  0  0  0  0  0  0  0  0
  1  2  1  0
  2  3  1  0
  3  4  1  0
  4  5  1  0
  4  6  1  0
  6  7  1  0
  7  8  1  0
  6  9  1  0
  9  2  1  0
  9  3  1  0
  8  6  1  0
  1 10  1  0
  2 11  1  0
  3 12  1  0
  4 13  1  0
  5 14  1  0
  7 15  1  0
  7 16  1  0
  8 17  1  0
  8 18  1  0
  9 19  1  0
M  END
