
     RDKit          3D

 19 21  0  0  0  0  0  0  0  0999 V2000
    2.4866    0.1426    0.7759 O   0  0  0  0  0  0  0  0  0  0  0  0
    1.3007    0.7430    0.4089 C   0  0  0  0  0  0  0  0  0  0  0  0
    0.6024    0.0014   -0.7355 C   0  0  0  0  0  0  0  0  0  0  0  0
    0.8506   -1.4225   -0.2570 C   0  0  0  0  0  0  0  0  0  0  0  0
    0.5327   -1.2457    1.1166 O   0  0  0  0  0  0  0  0  0  0  0  0
    0.1519    0.0923    1.2033 C   0  0  0  0  0  0  0  0  0  0  0  0
   -0.6644    0.2827   -0.0179 C   0  0  0  0  0  0  0  0  0  0  0  0
   -1.6970    1.1816   -0.3116 C   0  0  0  0  0  0  0  0  0  0  0  0
   -1.9484   -0.3456   -0.2880 C   0  0  0  0  0  0  0  0  0  0  0  0
    3.1363    0.0428    0.0335 H   0  0  0  0  0  0  0  0  0  0  0  0
    1.2642    1.8246    0.3557 H   0  0  0  0  0  0  0  0  0  0  0  0
    0.7935    0.2758   -1.7224 H   0  0  0  0  0  0  0  0  0  0  0  0
    0.0755   -2.0481   -0.7305 H   0  0  0  0  0  0  0  0  0  0  0  0
    1.8738   -1.7547   -0.3987 H   0  0  0  0  0  0  0  0  0  0  0  0
   -0.0995    0.5112    2.1339 H   0  0  0  0  0  0  0  0  0  0  0  0
   -1.8111    1.6151   -1.3323 H   0  0  0  0  0  0  0  0  0  0  0  0
   -2.2754    1.7160    0.4569 H   0  0  0  0  0  0  0  0  0  0  0  0
   -2.0655   -0.8561   -1.2581 H   0  0  0  0  0  0  0  0  0  0  0  0
   -2.5070   -0.7562    0.5671 H   0  0  0  0  0  0  0  0  0  0  0  0
  1  2  1  0
  2  3  1  0
  3  4  1  0
  4  5  1  0
  5  6  1  0
  6  7  1  0
  7  8  1  0
  8  9  1  0
  6  2  1  0
  9  7  1  0
  7  3  1  0
  1 10  1  0
  2 11  1  0
  3 12  1  0
  4 13  1  0
  4 14  1  0
  6 15  1  0
  8 16  1  0
  8 17  1  0
  9 18  1  0
  9 19  1  0
M  END
