
     RDKit          3D

 21 22  0  0  0  0  0  0  0  0999 V2000
    2.2686    0.0593   -0.7336 O   0  0  0  0  0  0  0  0  0  0  0  0
    1.5386    0.4537    0.3887 C   0  0  0  0  0  0  0  0  0  0  0  0
    0.5198    1.4780   -0.1144 C   0  0  0  0  0  0  0  0  0  0  0  0
   -0.4549    0.7124   -0.9841 C   0  0  0  0  0  0  0  0  0  0  0  0
   -1.6893    0.4586   -0.1525 C   0  0  0  0  0  0  0  0  0  0  0  0
   -1.5937   -1.0139    0.1299 C   0  0  0  0  0  0  0  0  0  0  0  0
   -0.1088   -1.2742   -0.1539 C   0  0  0  0  0  0  0  0  0  0  0  0
    0.7452   -0.7164    0.9452 C   0  0  0  0  0  0  0  0  0  0  0  0
    0.0462   -0.5478   -1.3422 O   0  0  0  0  0  0  0  0  0  0  0  0
    2.8171   -0.7300   -0.5936 H   0  0  0  0  0  0  0  0  0  0  0  0
    2.1624    0.8632    1.1920 H   0  0  0  0  0  0  0  0  0  0  0  0
    1.0577    2.2372   -0.7103 H   0  0  0  0  0  0  0  0  0  0  0  0
    0.0303    1.9591    0.7558 H   0  0  0  0  0  0  0  0  0  0  0  0
   -0.6753    1.2338   -1.9353 H   0  0  0  0  0  0  0  0  0  0  0  0
   -2.5589    0.7001   -0.7647 H   0  0  0  0  0  0  0  0  0  0  0  0
   -1.7146    1.0831    0.7593 H   0  0  0  0  0  0  0  0  0  0  0  0
   -1.8587   -1.2886    1.1572 H   0  0  0  0  0  0  0  0  0  0  0  0
   -2.1657   -1.5466   -0.6455 H   0  0  0  0  0  0  0  0  0  0  0  0
    0.0812   -2.3380   -0.3752 H   0  0  0  0  0  0  0  0  0  0  0  0
    1.4320   -1.4556    1.3975 H   0  0  0  0  0  0  0  0  0  0  0  0
    0.1209   -0.3275    1.7797 H   0  0  0  0  0  0  0  0  0  0  0  0
  1  2  1  0
  2  3  1  0
  3  4  1  0
  4  5  1  0
  5  6  1  0
  6  7  1  0
  7  8  1  0
  7  9  1  0
  8  2  1  0
  9  4  1  0
  1 10  1  0
  2 11  1  0
  3 12  1  0
  3 13  1  0
  4 14  1  0
  5 15  1  0
  5 16  1  0
  6 17  1  0
  6 18  1  0
  7 19  1  0
  8 20  1  0
  8 21  1  0
M  END
