
     RDKit          3D

 18 18  0  0  0  0  0  0  0  0999 V2000
   -1.0010    1.8652   -0.6291 O   0  0  0  0  0  0  0  0  0  0  0  0
   -0.3882    0.9554    0.2590 C   0  0  0  0  0  0  0  0  0  0  0  0
    1.0626    0.9498   -0.0268 C   0  0  0  0  0  0  0  0  0  0  0  0
    1.7641   -0.3383    0.1163 C   0  0  0  0  0  0  0  0  0  0  0  0
    0.9625   -1.4401    0.3109 O   0  0  0  0  0  0  0  0  0  0  0  0
   -0.1360   -1.3268   -0.5447 C   0  0  0  0  0  0  0  0  0  0  0  0
   -1.0904   -0.3402    0.1349 C   0  0  0  0  0  0  0  0  0  0  0  0
   -1.5433   -0.8419    1.3569 O   0  0  0  0  0  0  0  0  0  0  0  0
   -1.9875    1.7977   -0.5379 H   0  0  0  0  0  0  0  0  0  0  0  0
   -0.6020    1.3735    1.2800 H   0  0  0  0  0  0  0  0  0  0  0  0
    1.5470    1.6930    0.6728 H   0  0  0  0  0  0  0  0  0  0  0  0
    1.2858    1.3650   -1.0534 H   0  0  0  0  0  0  0  0  0  0  0  0
    2.5013   -0.3277    0.9721 H   0  0  0  0  0  0  0  0  0  0  0  0
    2.4099   -0.5704   -0.7811 H   0  0  0  0  0  0  0  0  0  0  0  0
    0.1802   -0.8219   -1.4921 H   0  0  0  0  0  0  0  0  0  0  0  0
   -0.6099   -2.2976   -0.7281 H   0  0  0  0  0  0  0  0  0  0  0  0
   -1.9865   -0.3026   -0.5325 H   0  0  0  0  0  0  0  0  0  0  0  0
   -2.3686   -1.3923    1.2230 H   0  0  0  0  0  0  0  0  0  0  0  0
  1  2  1  0
  2  3  1  0
  3  4  1  0
  4  5  1  0
  5  6  1  0
  6  7  1  0
  7  8  1  0
  7  2  1  0
  1  9  1  0
  2 10  1  0
  3 11  1  0
  3 12  1  0
  4 13  1  0
  4 14  1  0
  6 15  1  0
  6 16  1  0
  7 17  1  0
  8 18  1  0
M  END
