
     RDKit          3D

 19 21  0  0  0  0  0  0  0  0999 V2000
    3.1668    0.6010   -0.3438 O   0  0  0  0  0  0  0  0  0  0  0  0
    2.0709    0.1879    0.3711 C   0  0  0  0  0  0  0  0  0  0  0  0
    1.0983   -0.6889   -0.3276 C   0  0  0  0  0  0  0  0  0  0  0  0
   -0.1976   -1.0767    0.3473 C   0  0  0  0  0  0  0  0  0  0  0  0
   -1.2985   -1.3277   -0.6045 C   0  0  0  0  0  0  0  0  0  0  0  0
   -2.1479   -0.3138   -0.6498 C   0  0  0  0  0  0  0  0  0  0  0  0
   -1.7580    0.7626    0.2508 C   0  0  0  0  0  0  0  0  0  0  0  0
   -0.4215    0.3606    0.7674 C   0  0  0  0  0  0  0  0  0  0  0  0
    0.7627    0.7313   -0.0742 C   0  0  0  0  0  0  0  0  0  0  0  0
    3.3090    1.5897   -0.2420 H   0  0  0  0  0  0  0  0  0  0  0  0
    2.2430   -0.0617    1.4408 H   0  0  0  0  0  0  0  0  0  0  0  0
    1.3469   -1.0707   -1.3217 H   0  0  0  0  0  0  0  0  0  0  0  0
   -0.0965   -1.8021    1.1707 H   0  0  0  0  0  0  0  0  0  0  0  0
   -1.3653   -2.2693   -1.1908 H   0  0  0  0  0  0  0  0  0  0  0  0
   -3.0325   -0.3505   -1.3204 H   0  0  0  0  0  0  0  0  0  0  0  0
   -1.6423    1.7181   -0.3317 H   0  0  0  0  0  0  0  0  0  0  0  0
   -2.4905    0.9609    1.0743 H   0  0  0  0  0  0  0  0  0  0  0  0
   -0.2339    0.5647    1.8445 H   0  0  0  0  0  0  0  0  0  0  0  0
    0.6869    1.4845   -0.8603 H   0  0  0  0  0  0  0  0  0  0  0  0
  1  2  1  0
  2  3  1  0
  3  4  1  0
  4  5  1  0
  5  6  2  0
  6  7  1  0
  7  8  1  0
  8  9  1  0
  9  2  1  0
  9  3  1  0
  8  4  1  0
  1 10  1  0
  2 11  1  0
  3 12  1  0
  4 13  1  0
  5 14  1  0
  6 15  1  0
  7 16  1  0
  7 17  1  0
  8 18  1  0
  9 19  1  0
M  END
