
     RDKit          3D

 19 20  0  0  0  0  0  0  0  0999 V2000
    0.6105    2.1308   -0.5242 O   0  0  0  0  0  0  0  0  0  0  0  0
   -0.0462    1.0182    0.0110 C   0  0  0  0  0  0  0  0  0  0  0  0
   -1.2849    0.7765   -0.8613 C   0  0  0  0  0  0  0  0  0  0  0  0
   -1.7913   -0.4921   -0.6911 O   0  0  0  0  0  0  0  0  0  0  0  0
   -1.4448   -1.0884    0.5008 C   0  0  0  0  0  0  0  0  0  0  0  0
    0.0506   -1.3425    0.6201 C   0  0  0  0  0  0  0  0  0  0  0  0
    0.7767   -0.2172   -0.0348 C   0  0  0  0  0  0  0  0  0  0  0  0
    2.2202   -0.2491   -0.0789 C   0  0  0  0  0  0  0  0  0  0  0  0
    1.4131   -0.4322   -1.2761 O   0  0  0  0  0  0  0  0  0  0  0  0
    0.4458    2.9517    0.0291 H   0  0  0  0  0  0  0  0  0  0  0  0
   -0.4206    1.2910    0.9995 H   0  0  0  0  0  0  0  0  0  0  0  0
   -2.0805    1.5192   -0.6367 H   0  0  0  0  0  0  0  0  0  0  0  0
   -1.0136    0.8709   -1.9498 H   0  0  0  0  0  0  0  0  0  0  0  0
   -1.9709   -2.0633    0.5527 H   0  0  0  0  0  0  0  0  0  0  0  0
   -1.7142   -0.4154    1.3486 H   0  0  0  0  0  0  0  0  0  0  0  0
    0.3524   -2.3092    0.1982 H   0  0  0  0  0  0  0  0  0  0  0  0
    0.3257   -1.3817    1.7085 H   0  0  0  0  0  0  0  0  0  0  0  0
    2.8537    0.6494   -0.0709 H   0  0  0  0  0  0  0  0  0  0  0  0
    2.7182   -1.2166    0.1553 H   0  0  0  0  0  0  0  0  0  0  0  0
  1  2  1  0
  2  3  1  0
  3  4  1  0
  4  5  1  0
  5  6  1  0
  6  7  1  0
  7  8  1  0
  8  9  1  0
  7  2  1  0
  9  7  1  0
  1 10  1  0
  2 11  1  0
  3 12  1  0
  3 13  1  0
  5 14  1  0
  5 15  1  0
  6 16  1  0
  6 17  1  0
  8 18  1  0
  8 19  1  0
M  END
