
     RDKit          3D

 23 23  0  0  0  0  0  0  0  0999 V2000
   -1.2165    2.3961   -0.2411 O   0  0  0  0  0  0  0  0  0  0  0  0
   -0.7015    1.0781   -0.2550 C   0  0  0  0  0  0  0  0  0  0  0  0
    0.6039    1.1357    0.5081 C   0  0  0  0  0  0  0  0  0  0  0  0
    1.7104    0.6550   -0.4055 C   0  0  0  0  0  0  0  0  0  0  0  0
    1.9587   -0.8024   -0.0688 C   0  0  0  0  0  0  0  0  0  0  0  0
    0.9072   -1.3240    0.7206 O   0  0  0  0  0  0  0  0  0  0  0  0
   -0.1443   -1.6682   -0.1074 C   0  0  0  0  0  0  0  0  0  0  0  0
   -1.4830   -1.2301    0.3822 C   0  0  0  0  0  0  0  0  0  0  0  0
   -1.7247    0.2189    0.4117 C   0  0  0  0  0  0  0  0  0  0  0  0
   -1.1665    2.8275   -1.1055 H   0  0  0  0  0  0  0  0  0  0  0  0
   -0.5483    0.8340   -1.3205 H   0  0  0  0  0  0  0  0  0  0  0  0
    0.8363    2.1274    0.9034 H   0  0  0  0  0  0  0  0  0  0  0  0
    0.4918    0.4554    1.3915 H   0  0  0  0  0  0  0  0  0  0  0  0
    2.6245    1.2756   -0.2590 H   0  0  0  0  0  0  0  0  0  0  0  0
    1.4210    0.7904   -1.4655 H   0  0  0  0  0  0  0  0  0  0  0  0
    2.1350   -1.4150   -0.9643 H   0  0  0  0  0  0  0  0  0  0  0  0
    2.8589   -0.8171    0.5986 H   0  0  0  0  0  0  0  0  0  0  0  0
    0.0182   -1.3647   -1.1674 H   0  0  0  0  0  0  0  0  0  0  0  0
   -0.1563   -2.7935   -0.1336 H   0  0  0  0  0  0  0  0  0  0  0  0
   -1.6058   -1.6339    1.4300 H   0  0  0  0  0  0  0  0  0  0  0  0
   -2.2544   -1.7821   -0.2146 H   0  0  0  0  0  0  0  0  0  0  0  0
   -1.8569    0.6075    1.4533 H   0  0  0  0  0  0  0  0  0  0  0  0
   -2.7078    0.4293   -0.0911 H   0  0  0  0  0  0  0  0  0  0  0  0
  1  2  1  0
  2  3  1  0
  3  4  1  0
  4  5  1  0
  5  6  1  0
  6  7  1  0
  7  8  1  0
  8  9  1  0
  9  2  1  0
  1 10  1  0
  2 11  1  0
  3 12  1  0
  3 13  1  0
  4 14  1  0
  4 15  1  0
  5 16  1  0
  5 17  1  0
  7 18  1  0
  7 19  1  0
  8 20  1  0
  8 21  1  0
  9 22  1  0
  9 23  1  0
M  END
