
     RDKit          3D

 21 22  0  0  0  0  0  0  0  0999 V2000
    0.2223    2.0771    0.0665 O   0  0  0  0  0  0  0  0  0  0  0  0
   -0.3612    0.8780    0.4064 C   0  0  0  0  0  0  0  0  0  0  0  0
   -1.7541    0.7376   -0.2165 C   0  0  0  0  0  0  0  0  0  0  0  0
   -1.9699   -0.7487   -0.3877 C   0  0  0  0  0  0  0  0  0  0  0  0
   -0.6816   -1.4151    0.1023 C   0  0  0  0  0  0  0  0  0  0  0  0
    0.3299   -0.3180   -0.2209 C   0  0  0  0  0  0  0  0  0  0  0  0
    1.6789   -0.5831    0.3208 C   0  0  0  0  0  0  0  0  0  0  0  0
    2.7733    0.3190    0.2787 C   0  0  0  0  0  0  0  0  0  0  0  0
    2.6833   -0.6215   -0.7801 O   0  0  0  0  0  0  0  0  0  0  0  0
   -0.4461    2.7363   -0.2920 H   0  0  0  0  0  0  0  0  0  0  0  0
   -0.4650    0.7384    1.5179 H   0  0  0  0  0  0  0  0  0  0  0  0
   -2.5285    1.2220    0.3767 H   0  0  0  0  0  0  0  0  0  0  0  0
   -1.6683    1.1718   -1.2561 H   0  0  0  0  0  0  0  0  0  0  0  0
   -2.7661   -1.0779    0.2780 H   0  0  0  0  0  0  0  0  0  0  0  0
   -2.1645   -1.0194   -1.4504 H   0  0  0  0  0  0  0  0  0  0  0  0
   -0.7209   -1.5808    1.1996 H   0  0  0  0  0  0  0  0  0  0  0  0
   -0.4646   -2.3392   -0.4656 H   0  0  0  0  0  0  0  0  0  0  0  0
    0.2787   -0.1744   -1.3163 H   0  0  0  0  0  0  0  0  0  0  0  0
    1.7659   -1.5186    0.9404 H   0  0  0  0  0  0  0  0  0  0  0  0
    2.5841    1.3942   -0.0047 H   0  0  0  0  0  0  0  0  0  0  0  0
    3.6747    0.1225    0.9032 H   0  0  0  0  0  0  0  0  0  0  0  0
  1  2  1  0
  2  3  1  0
  3  4  1  0
  4  5  1  0
  5  6  1  0
  6  7  1  0
  7  8  1  0
  8  9  1  0
  6  2  1  0
  9  7  1  0
  1 10  1  0
  2 11  1  0
  3 12  1  0
  3 13  1  0
  4 14  1  0
  4 15  1  0
  5 16  1  0
  5 17  1  0
  6 18  1  0
  7 19  1  0
  8 20  1  0
  8 21  1  0
M  END
