
     RDKit          2D

 21 23  0  0  0  0  0  0  0  0999 V2000
    2.1213    1.0607    0.0000 O   0  0  0  0  0  0  0  0  0  0  0  0
    1.0607    0.0000    0.0000 C   0  0  0  0  0  0  0  0  0  0  0  0
   -0.0000   -1.0607    0.0000 C   0  0  0  0  0  0  0  0  0  0  0  0
   -1.0607    0.0000    0.0000 C   0  0  0  0  0  0  0  0  0  0  0  0
    0.0000    1.0607    0.0000 C   0  0  0  0  0  0  0  0  0  0  0  0
    1.4266    0.5971    0.0000 C   0  0  0  0  0  0  0  0  0  0  0  0
    2.9266    0.5971    0.0000 C   0  0  0  0  0  0  0  0  0  0  0  0
    2.9266   -0.9029    0.0000 C   0  0  0  0  0  0  0  0  0  0  0  0
    1.4266   -0.9029    0.0000 C   0  0  0  0  0  0  0  0  0  0  0  0
    1.9126    2.5461    0.0000 H   0  0  0  0  0  0  0  0  0  0  0  0
    1.7440   -0.4105    0.0000 H   0  0  0  0  0  0  0  0  0  0  0  0
   -0.0000   -2.5607    0.0000 H   0  0  0  0  0  0  0  0  0  0  0  0
   -2.1213   -1.0607    0.0000 H   0  0  0  0  0  0  0  0  0  0  0  0
   -2.1213    1.0607    0.0000 H   0  0  0  0  0  0  0  0  0  0  0  0
    0.0000    2.5607    0.0000 H   0  0  0  0  0  0  0  0  0  0  0  0
    1.4789    2.0962    0.0000 H   0  0  0  0  0  0  0  0  0  0  0  0
    4.4266    0.5971    0.0000 H   0  0  0  0  0  0  0  0  0  0  0  0
    2.9266    2.0971    0.0000 H   0  0  0  0  0  0  0  0  0  0  0  0
    2.9266   -2.4029    0.0000 H   0  0  0  0  0  0  0  0  0  0  0  0
    4.4266   -0.9029    0.0000 H   0  0  0  0  0  0  0  0  0  0  0  0
    1.6612   -2.3844    0.0000 H   0  0  0  0  0  0  0  0  0  0  0  0
  1  2  1  0
  2  3  1  0
  3  4  1  0
  4  5  1  0
  5  6  1  0
  6  7  1  0
  7  8  1  0
  8  9  1  0
  5  2  1  0
  9  6  1  0
  9  3  1  0
  1 10  1  0
  2 11  1  0
  3 12  1  0
  4 13  1  0
  4 14  1  0
  5 15  1  0
  6 16  1  0
  7 17  1  0
  7 18  1  0
  8 19  1  0
  8 20  1  0
  9 21  1  0
M  END
