
     RDKit          3D

 18 18  0  0  0  0  0  0  0  0999 V2000
   -1.0392    0.4366    1.4288 O   0  0  0  0  0  0  0  0  0  0  0  0
   -1.2252    0.1246    0.0821 C   0  0  0  0  0  0  0  0  0  0  0  0
   -0.6082    1.2182   -0.7307 C   0  0  0  0  0  0  0  0  0  0  0  0
    0.7834    1.5288   -0.3384 C   0  0  0  0  0  0  0  0  0  0  0  0
    1.6817    0.6485    0.0658 C   0  0  0  0  0  0  0  0  0  0  0  0
    1.6502   -0.7940    0.2573 C   0  0  0  0  0  0  0  0  0  0  0  0
    0.6009   -1.5854    0.1389 C   0  0  0  0  0  0  0  0  0  0  0  0
   -0.7746   -1.2455   -0.2059 C   0  0  0  0  0  0  0  0  0  0  0  0
   -1.7651    0.1095    2.0051 H   0  0  0  0  0  0  0  0  0  0  0  0
   -2.3203    0.1843   -0.0955 H   0  0  0  0  0  0  0  0  0  0  0  0
   -0.6532    0.9847   -1.8327 H   0  0  0  0  0  0  0  0  0  0  0  0
   -1.2202    2.1331   -0.5958 H   0  0  0  0  0  0  0  0  0  0  0  0
    1.1364    2.5503   -0.3706 H   0  0  0  0  0  0  0  0  0  0  0  0
    2.6838    1.0671    0.3210 H   0  0  0  0  0  0  0  0  0  0  0  0
    2.6086   -1.2768    0.5313 H   0  0  0  0  0  0  0  0  0  0  0  0
    0.8181   -2.6571    0.3344 H   0  0  0  0  0  0  0  0  0  0  0  0
   -1.4496   -1.9602    0.3088 H   0  0  0  0  0  0  0  0  0  0  0  0
   -0.9075   -1.4668   -1.3039 H   0  0  0  0  0  0  0  0  0  0  0  0
  1  2  1  0
  2  3  1  0
  3  4  1  0
  4  5  2  0
  5  6  1  0
  6  7  2  0
  7  8  1  0
  8  2  1  0
  1  9  1  0
  2 10  1  0
  3 11  1  0
  3 12  1  0
  4 13  1  0
  5 14  1  0
  6 15  1  0
  7 16  1  0
  8 17  1  0
  8 18  1  0
M  END
