
     RDKit          3D

 25 25  0  0  0  0  0  0  0  0999 V2000
    1.5120    0.3500    1.3659 O   0  0  0  0  0  0  0  0  0  0  0  0
    1.5219    0.3650   -0.0495 C   0  0  0  0  0  0  0  0  0  0  0  0
    1.0881   -0.9222   -0.6372 C   0  0  0  0  0  0  0  0  0  0  0  0
    0.3760   -1.8464    0.2939 C   0  0  0  0  0  0  0  0  0  0  0  0
   -0.7916   -1.2691    1.0000 C   0  0  0  0  0  0  0  0  0  0  0  0
   -1.6871   -0.5487    0.0385 C   0  0  0  0  0  0  0  0  0  0  0  0
   -1.4395    0.9448    0.2398 C   0  0  0  0  0  0  0  0  0  0  0  0
   -0.6015    1.4212   -0.9035 C   0  0  0  0  0  0  0  0  0  0  0  0
    0.8477    1.5789   -0.5751 C   0  0  0  0  0  0  0  0  0  0  0  0
    2.2167    0.9467    1.7237 H   0  0  0  0  0  0  0  0  0  0  0  0
    2.6221    0.4960   -0.2853 H   0  0  0  0  0  0  0  0  0  0  0  0
    1.9629   -1.5217   -1.0357 H   0  0  0  0  0  0  0  0  0  0  0  0
    0.4523   -0.7698   -1.5582 H   0  0  0  0  0  0  0  0  0  0  0  0
    1.1025   -2.3194    0.9957 H   0  0  0  0  0  0  0  0  0  0  0  0
   -0.0065   -2.7045   -0.3313 H   0  0  0  0  0  0  0  0  0  0  0  0
   -1.3772   -2.1343    1.4326 H   0  0  0  0  0  0  0  0  0  0  0  0
   -0.5473   -0.6324    1.8723 H   0  0  0  0  0  0  0  0  0  0  0  0
   -2.7545   -0.8079    0.2388 H   0  0  0  0  0  0  0  0  0  0  0  0
   -1.5154   -0.8465   -1.0267 H   0  0  0  0  0  0  0  0  0  0  0  0
   -2.4540    1.4258    0.1953 H   0  0  0  0  0  0  0  0  0  0  0  0
   -1.0233    1.1563    1.2343 H   0  0  0  0  0  0  0  0  0  0  0  0
   -0.8129    0.8132   -1.7899 H   0  0  0  0  0  0  0  0  0  0  0  0
   -0.9721    2.4599   -1.1562 H   0  0  0  0  0  0  0  0  0  0  0  0
    1.3516    1.9846   -1.4784 H   0  0  0  0  0  0  0  0  0  0  0  0
    0.9292    2.3803    0.1963 H   0  0  0  0  0  0  0  0  0  0  0  0
  1  2  1  0
  2  3  1  0
  3  4  1  0
  4  5  1  0
  5  6  1  0
  6  7  1  0
  7  8  1  0
  8  9  1  0
  9  2  1  0
  1 10  1  0
  2 11  1  0
  3 12  1  0
  3 13  1  0
  4 14  1  0
  4 15  1  0
  5 16  1  0
  5 17  1  0
  6 18  1  0
  6 19  1  0
  7 20  1  0
  7 21  1  0
  8 22  1  0
  8 23  1  0
  9 24  1  0
  9 25  1  0
M  END
