
     RDKit          3D

 19 21  0  0  0  0  0  0  0  0999 V2000
    1.8816    0.5455    1.0149 O   0  0  0  0  0  0  0  0  0  0  0  0
    1.3656    0.0730   -0.1625 C   0  0  0  0  0  0  0  0  0  0  0  0
    0.3388    0.9942   -0.7816 C   0  0  0  0  0  0  0  0  0  0  0  0
   -0.7001    1.3959    0.2535 C   0  0  0  0  0  0  0  0  0  0  0  0
   -1.2815    0.1644    0.8534 C   0  0  0  0  0  0  0  0  0  0  0  0
   -0.8031   -1.1137    0.2645 C   0  0  0  0  0  0  0  0  0  0  0  0
   -0.4371   -1.0643   -1.1531 C   0  0  0  0  0  0  0  0  0  0  0  0
   -0.2783    0.1774   -1.6982 O   0  0  0  0  0  0  0  0  0  0  0  0
    0.6153   -1.2139   -0.0516 C   0  0  0  0  0  0  0  0  0  0  0  0
    2.4026   -0.1809    1.4338 H   0  0  0  0  0  0  0  0  0  0  0  0
    2.1903   -0.0502   -0.9116 H   0  0  0  0  0  0  0  0  0  0  0  0
    0.7563    1.8918   -1.2301 H   0  0  0  0  0  0  0  0  0  0  0  0
   -0.2884    2.1082    1.0024 H   0  0  0  0  0  0  0  0  0  0  0  0
   -1.4712    1.9945   -0.3130 H   0  0  0  0  0  0  0  0  0  0  0  0
   -1.1594    0.1804    1.9676 H   0  0  0  0  0  0  0  0  0  0  0  0
   -2.3994    0.2031    0.7023 H   0  0  0  0  0  0  0  0  0  0  0  0
   -1.3133   -2.0172    0.6198 H   0  0  0  0  0  0  0  0  0  0  0  0
   -0.5841   -1.9296   -1.8010 H   0  0  0  0  0  0  0  0  0  0  0  0
    1.1654   -2.1586   -0.0095 H   0  0  0  0  0  0  0  0  0  0  0  0
  1  2  1  0
  2  3  1  0
  3  4  1  0
  4  5  1  0
  5  6  1  0
  6  7  1  0
  7  8  1  0
  7  9  1  0
  9  2  1  0
  8  3  1  0
  9  6  1  0
  1 10  1  0
  2 11  1  0
  3 12  1  0
  4 13  1  0
  4 14  1  0
  5 15  1  0
  5 16  1  0
  6 17  1  0
  7 18  1  0
  9 19  1  0
M  END
