
     RDKit          3D

 19 20  0  0  0  0  0  0  0  0999 V2000
    1.2351   -1.6867    0.0524 O   0  0  0  0  0  0  0  0  0  0  0  0
    1.0751   -0.3475   -0.1605 C   0  0  0  0  0  0  0  0  0  0  0  0
   -0.0148    0.0865   -1.0896 C   0  0  0  0  0  0  0  0  0  0  0  0
   -1.2053   -0.7377   -0.6788 C   0  0  0  0  0  0  0  0  0  0  0  0
   -1.0559   -0.6314    0.8542 C   0  0  0  0  0  0  0  0  0  0  0  0
    0.1530    0.2341    0.9241 C   0  0  0  0  0  0  0  0  0  0  0  0
    0.6866    0.6182    2.0700 O   0  0  0  0  0  0  0  0  0  0  0  0
   -0.1540    1.2897   -0.1436 C   0  0  0  0  0  0  0  0  0  0  0  0
    0.8893    2.1847   -0.2071 O   0  0  0  0  0  0  0  0  0  0  0  0
    0.9661   -2.2744   -0.6652 H   0  0  0  0  0  0  0  0  0  0  0  0
    2.0041    0.2626   -0.2785 H   0  0  0  0  0  0  0  0  0  0  0  0
    0.1798    0.2827   -2.1105 H   0  0  0  0  0  0  0  0  0  0  0  0
   -2.1305   -0.2415   -1.0092 H   0  0  0  0  0  0  0  0  0  0  0  0
   -1.1817   -1.7703   -1.0164 H   0  0  0  0  0  0  0  0  0  0  0  0
   -0.9231   -1.6518    1.2204 H   0  0  0  0  0  0  0  0  0  0  0  0
   -1.9585   -0.1354    1.2627 H   0  0  0  0  0  0  0  0  0  0  0  0
    1.6268    0.3538    2.2486 H   0  0  0  0  0  0  0  0  0  0  0  0
   -1.1675    1.6835   -0.1300 H   0  0  0  0  0  0  0  0  0  0  0  0
    0.9752    2.4809   -1.1432 H   0  0  0  0  0  0  0  0  0  0  0  0
  1  2  1  0
  2  3  1  0
  3  4  1  0
  4  5  1  0
  5  6  1  0
  6  7  1  0
  6  8  1  0
  8  9  1  0
  6  2  1  0
  8  3  1  0
  1 10  1  0
  2 11  1  0
  3 12  1  0
  4 13  1  0
  4 14  1  0
  5 15  1  0
  5 16  1  0
  7 17  1  0
  8 18  1  0
  9 19  1  0
M  END
