
     RDKit          3D

 19 20  0  0  0  0  0  0  0  0999 V2000
    1.8183   -1.4234    0.8630 O   0  0  0  0  0  0  0  0  0  0  0  0
    1.4095   -0.4807   -0.0740 C   0  0  0  0  0  0  0  0  0  0  0  0
    1.5144    0.9017    0.4225 C   0  0  0  0  0  0  0  0  0  0  0  0
    0.4733    1.5924    0.0487 C   0  0  0  0  0  0  0  0  0  0  0  0
   -0.4514    0.7691   -0.7363 C   0  0  0  0  0  0  0  0  0  0  0  0
   -1.7886    0.7836    0.0066 C   0  0  0  0  0  0  0  0  0  0  0  0
   -1.5170   -0.0613    1.1111 O   0  0  0  0  0  0  0  0  0  0  0  0
   -0.9423   -1.1705    0.5092 C   0  0  0  0  0  0  0  0  0  0  0  0
    0.0024   -0.6441   -0.5130 C   0  0  0  0  0  0  0  0  0  0  0  0
    2.2363   -2.1773    0.3361 H   0  0  0  0  0  0  0  0  0  0  0  0
    2.0749   -0.5416   -0.9844 H   0  0  0  0  0  0  0  0  0  0  0  0
    2.3758    1.3037    1.0397 H   0  0  0  0  0  0  0  0  0  0  0  0
    0.2581    2.6541    0.2611 H   0  0  0  0  0  0  0  0  0  0  0  0
   -0.5544    1.0532   -1.7884 H   0  0  0  0  0  0  0  0  0  0  0  0
   -2.6188    0.4316   -0.5995 H   0  0  0  0  0  0  0  0  0  0  0  0
   -2.0202    1.8033    0.3696 H   0  0  0  0  0  0  0  0  0  0  0  0
   -1.7713   -1.6962   -0.0472 H   0  0  0  0  0  0  0  0  0  0  0  0
   -0.4790   -1.8588    1.2413 H   0  0  0  0  0  0  0  0  0  0  0  0
   -0.0201   -1.2390   -1.4661 H   0  0  0  0  0  0  0  0  0  0  0  0
  1  2  1  0
  2  3  1  0
  3  4  2  0
  4  5  1  0
  5  6  1  0
  6  7  1  0
  7  8  1  0
  8  9  1  0
  9  2  1  0
  9  5  1  0
  1 10  1  0
  2 11  1  0
  3 12  1  0
  4 13  1  0
  5 14  1  0
  6 15  1  0
  6 16  1  0
  8 17  1  0
  8 18  1  0
  9 19  1  0
M  END
