
     RDKit          3D

 19 21  0  0  0  0  0  0  0  0999 V2000
    2.6817    0.9046    0.8525 O   0  0  0  0  0  0  0  0  0  0  0  0
    2.1561   -0.0989    0.0394 C   0  0  0  0  0  0  0  0  0  0  0  0
    0.9954   -0.8504    0.5159 C   0  0  0  0  0  0  0  0  0  0  0  0
   -0.2500   -0.2351    1.0428 C   0  0  0  0  0  0  0  0  0  0  0  0
   -1.4726   -0.8945    0.3932 C   0  0  0  0  0  0  0  0  0  0  0  0
   -2.2275    0.3508   -0.0705 C   0  0  0  0  0  0  0  0  0  0  0  0
   -1.2851    1.2850   -0.3944 O   0  0  0  0  0  0  0  0  0  0  0  0
   -0.1000    0.9926    0.2027 C   0  0  0  0  0  0  0  0  0  0  0  0
    0.8904    0.1855   -0.6443 C   0  0  0  0  0  0  0  0  0  0  0  0
    3.1248    1.5864    0.2834 H   0  0  0  0  0  0  0  0  0  0  0  0
    2.9180   -0.6483   -0.5236 H   0  0  0  0  0  0  0  0  0  0  0  0
    0.9155   -1.9126    0.2344 H   0  0  0  0  0  0  0  0  0  0  0  0
   -0.3429   -0.0911    2.1232 H   0  0  0  0  0  0  0  0  0  0  0  0
   -2.0018   -1.4518    1.1618 H   0  0  0  0  0  0  0  0  0  0  0  0
   -1.1772   -1.4859   -0.4962 H   0  0  0  0  0  0  0  0  0  0  0  0
   -2.8640    0.0789   -0.9373 H   0  0  0  0  0  0  0  0  0  0  0  0
   -2.8979    0.6620    0.7730 H   0  0  0  0  0  0  0  0  0  0  0  0
    0.3703    1.8722    0.7066 H   0  0  0  0  0  0  0  0  0  0  0  0
    0.5671   -0.2492   -1.5819 H   0  0  0  0  0  0  0  0  0  0  0  0
  1  2  1  0
  2  3  1  0
  3  4  1  0
  4  5  1  0
  5  6  1  0
  6  7  1  0
  7  8  1  0
  8  9  1  0
  9  2  1  0
  9  3  1  0
  8  4  1  0
  1 10  1  0
  2 11  1  0
  3 12  1  0
  4 13  1  0
  5 14  1  0
  5 15  1  0
  6 16  1  0
  6 17  1  0
  8 18  1  0
  9 19  1  0
M  END
