
     RDKit          3D

 18 19  0  0  0  0  0  0  0  0999 V2000
    2.1174    0.2128   -1.5472 O   0  0  0  0  0  0  0  0  0  0  0  0
    1.7265   -0.1323   -0.2851 C   0  0  0  0  0  0  0  0  0  0  0  0
    1.2815    0.8137    0.7392 C   0  0  0  0  0  0  0  0  0  0  0  0
    0.2648    0.1025   -0.0253 C   0  0  0  0  0  0  0  0  0  0  0  0
   -0.5992    0.7432   -1.0027 C   0  0  0  0  0  0  0  0  0  0  0  0
   -1.8560    0.3793   -0.7938 C   0  0  0  0  0  0  0  0  0  0  0  0
   -1.9352   -0.5580    0.3698 C   0  0  0  0  0  0  0  0  0  0  0  0
   -0.5048   -1.0742    0.4458 C   0  0  0  0  0  0  0  0  0  0  0  0
    2.9252    0.7383   -1.6265 H   0  0  0  0  0  0  0  0  0  0  0  0
    2.2027   -1.0728    0.0961 H   0  0  0  0  0  0  0  0  0  0  0  0
    1.3886    1.9131    0.5148 H   0  0  0  0  0  0  0  0  0  0  0  0
    1.4839    0.6082    1.8112 H   0  0  0  0  0  0  0  0  0  0  0  0
   -0.2997    1.4162   -1.7902 H   0  0  0  0  0  0  0  0  0  0  0  0
   -2.7526    0.6777   -1.3469 H   0  0  0  0  0  0  0  0  0  0  0  0
   -2.6220   -1.4009    0.1408 H   0  0  0  0  0  0  0  0  0  0  0  0
   -2.1597   -0.0438    1.3054 H   0  0  0  0  0  0  0  0  0  0  0  0
   -0.4122   -1.8832   -0.3298 H   0  0  0  0  0  0  0  0  0  0  0  0
   -0.2493   -1.4397    1.4458 H   0  0  0  0  0  0  0  0  0  0  0  0
  1  2  1  0
  2  3  1  0
  3  4  1  0
  4  5  1  0
  5  6  2  0
  6  7  1  0
  7  8  1  0
  4  2  1  0
  8  4  1  0
  1  9  1  0
  2 10  1  0
  3 11  1  0
  3 12  1  0
  5 13  1  0
  6 14  1  0
  7 15  1  0
  7 16  1  0
  8 17  1  0
  8 18  1  0
M  END
