
     RDKit          3D

 19 21  0  0  0  0  0  0  0  0999 V2000
    1.7463    0.4846   -0.9102 O   0  0  0  0  0  0  0  0  0  0  0  0
    1.2442    0.1263    0.3402 C   0  0  0  0  0  0  0  0  0  0  0  0
    0.8214   -1.3430    0.3534 C   0  0  0  0  0  0  0  0  0  0  0  0
   -0.4706   -1.2894   -0.3950 C   0  0  0  0  0  0  0  0  0  0  0  0
   -1.6857   -0.5100   -0.4239 C   0  0  0  0  0  0  0  0  0  0  0  0
   -1.8270    0.7938   -0.9298 O   0  0  0  0  0  0  0  0  0  0  0  0
   -0.6718    1.4816   -0.5750 C   0  0  0  0  0  0  0  0  0  0  0  0
   -0.0765    0.8042    0.6298 C   0  0  0  0  0  0  0  0  0  0  0  0
   -0.9860   -0.4158    0.7030 C   0  0  0  0  0  0  0  0  0  0  0  0
    2.6614    0.8363   -0.7949 H   0  0  0  0  0  0  0  0  0  0  0  0
    1.9673    0.3217    1.1338 H   0  0  0  0  0  0  0  0  0  0  0  0
    1.5374   -2.0074   -0.1146 H   0  0  0  0  0  0  0  0  0  0  0  0
    0.7495   -1.6847    1.4094 H   0  0  0  0  0  0  0  0  0  0  0  0
   -0.1356   -1.0879   -1.4265 H   0  0  0  0  0  0  0  0  0  0  0  0
   -2.6309   -1.0956   -0.5666 H   0  0  0  0  0  0  0  0  0  0  0  0
    0.0223    1.6326   -1.3970 H   0  0  0  0  0  0  0  0  0  0  0  0
   -1.0222    2.4932   -0.2220 H   0  0  0  0  0  0  0  0  0  0  0  0
   -0.0933    1.3887    1.5436 H   0  0  0  0  0  0  0  0  0  0  0  0
   -1.1501   -0.9294    1.6422 H   0  0  0  0  0  0  0  0  0  0  0  0
  1  2  1  0
  2  3  1  0
  3  4  1  0
  4  5  1  0
  5  6  1  0
  6  7  1  0
  7  8  1  0
  8  9  1  0
  8  2  1  0
  9  4  1  0
  9  5  1  0
  1 10  1  0
  2 11  1  0
  3 12  1  0
  3 13  1  0
  4 14  1  0
  5 15  1  0
  7 16  1  0
  7 17  1  0
  8 18  1  0
  9 19  1  0
M  END
