
     RDKit          3D

 19 20  0  0  0  0  0  0  0  0999 V2000
    1.3407   -1.0444   -1.8368 O   0  0  0  0  0  0  0  0  0  0  0  0
    0.7830   -0.7720   -0.6108 C   0  0  0  0  0  0  0  0  0  0  0  0
    1.5103    0.3844    0.0761 C   0  0  0  0  0  0  0  0  0  0  0  0
    0.4588    0.7879    1.1109 C   0  0  0  0  0  0  0  0  0  0  0  0
   -0.8183    0.7728    0.3320 C   0  0  0  0  0  0  0  0  0  0  0  0
   -1.4009    2.0133    0.1460 O   0  0  0  0  0  0  0  0  0  0  0  0
   -1.6598   -0.4244    0.2010 C   0  0  0  0  0  0  0  0  0  0  0  0
   -1.5532   -1.5143    1.0446 O   0  0  0  0  0  0  0  0  0  0  0  0
   -0.5985   -0.1684   -0.7927 C   0  0  0  0  0  0  0  0  0  0  0  0
    1.6874   -1.9641   -1.8155 H   0  0  0  0  0  0  0  0  0  0  0  0
    0.7973   -1.6071    0.1001 H   0  0  0  0  0  0  0  0  0  0  0  0
    1.6873    1.1825   -0.6534 H   0  0  0  0  0  0  0  0  0  0  0  0
    2.4209   -0.0190    0.5477 H   0  0  0  0  0  0  0  0  0  0  0  0
    0.7334    1.7817    1.4891 H   0  0  0  0  0  0  0  0  0  0  0  0
    0.4781    0.0601    1.9273 H   0  0  0  0  0  0  0  0  0  0  0  0
   -1.5930    2.2423   -0.7831 H   0  0  0  0  0  0  0  0  0  0  0  0
   -2.7039   -0.2449   -0.1499 H   0  0  0  0  0  0  0  0  0  0  0  0
   -0.6985   -1.5949    1.5057 H   0  0  0  0  0  0  0  0  0  0  0  0
   -0.8712    0.1285   -1.8383 H   0  0  0  0  0  0  0  0  0  0  0  0
  1  2  1  0
  2  3  1  0
  3  4  1  0
  4  5  1  0
  5  6  1  0
  5  7  1  0
  7  8  1  0
  7  9  1  0
  9  2  1  0
  9  5  1  0
  1 10  1  0
  2 11  1  0
  3 12  1  0
  3 13  1  0
  4 14  1  0
  4 15  1  0
  6 16  1  0
  7 17  1  0
  8 18  1  0
  9 19  1  0
M  END
