
     RDKit          3D

 23 24  0  0  0  0  0  0  0  0999 V2000
    2.6928   -0.6489   -0.4607 O   0  0  0  0  0  0  0  0  0  0  0  0
    1.3381   -0.2348   -0.5946 C   0  0  0  0  0  0  0  0  0  0  0  0
    1.1854    0.9449    0.2927 C   0  0  0  0  0  0  0  0  0  0  0  0
   -0.1192    1.5552    0.4689 C   0  0  0  0  0  0  0  0  0  0  0  0
   -1.3376    0.7214    0.2841 C   0  0  0  0  0  0  0  0  0  0  0  0
   -1.3292   -0.5591    1.0676 C   0  0  0  0  0  0  0  0  0  0  0  0
   -0.9402   -1.2357   -0.2470 C   0  0  0  0  0  0  0  0  0  0  0  0
    0.5262   -1.4307   -0.2293 C   0  0  0  0  0  0  0  0  0  0  0  0
   -1.4068   -0.0236   -1.0022 C   0  0  0  0  0  0  0  0  0  0  0  0
    3.2817    0.1274   -0.2993 H   0  0  0  0  0  0  0  0  0  0  0  0
    1.2554   -0.0138   -1.6799 H   0  0  0  0  0  0  0  0  0  0  0  0
    1.6206    0.6617    1.2991 H   0  0  0  0  0  0  0  0  0  0  0  0
    1.9160    1.7145   -0.0832 H   0  0  0  0  0  0  0  0  0  0  0  0
   -0.2093    2.0126    1.4973 H   0  0  0  0  0  0  0  0  0  0  0  0
   -0.2405    2.4393   -0.2173 H   0  0  0  0  0  0  0  0  0  0  0  0
   -2.2498    1.3066    0.4713 H   0  0  0  0  0  0  0  0  0  0  0  0
   -0.5450   -0.5520    1.8237 H   0  0  0  0  0  0  0  0  0  0  0  0
   -2.3146   -0.8923    1.4592 H   0  0  0  0  0  0  0  0  0  0  0  0
   -1.5674   -2.1096   -0.4902 H   0  0  0  0  0  0  0  0  0  0  0  0
    0.7835   -2.2425   -0.9441 H   0  0  0  0  0  0  0  0  0  0  0  0
    0.8406   -1.8182    0.7747 H   0  0  0  0  0  0  0  0  0  0  0  0
   -0.7439    0.3798   -1.7673 H   0  0  0  0  0  0  0  0  0  0  0  0
   -2.4369   -0.1023   -1.4234 H   0  0  0  0  0  0  0  0  0  0  0  0
  1  2  1  0
  2  3  1  0
  3  4  1  0
  4  5  1  0
  5  6  1  0
  6  7  1  0
  7  8  1  0
  7  9  1  0
  8  2  1  0
  9  5  1  0
  1 10  1  0
  2 11  1  0
  3 12  1  0
  3 13  1  0
  4 14  1  0
  4 15  1  0
  5 16  1  0
  6 17  1  0
  6 18  1  0
  7 19  1  0
  8 20  1  0
  8 21  1  0
  9 22  1  0
  9 23  1  0
M  END
