
     RDKit          3D

 21 22  0  0  0  0  0  0  0  0999 V2000
    1.4405    1.2534    1.5045 O   0  0  0  0  0  0  0  0  0  0  0  0
    1.2331    0.0189    0.9223 C   0  0  0  0  0  0  0  0  0  0  0  0
    2.2324   -0.2542   -0.1750 C   0  0  0  0  0  0  0  0  0  0  0  0
    1.4704    0.6164   -0.9901 O   0  0  0  0  0  0  0  0  0  0  0  0
    0.3620    0.1968   -0.3245 C   0  0  0  0  0  0  0  0  0  0  0  0
   -0.7157    1.1871   -0.0300 C   0  0  0  0  0  0  0  0  0  0  0  0
   -1.7693    0.2316    0.5567 C   0  0  0  0  0  0  0  0  0  0  0  0
   -1.7446   -0.8487   -0.5151 C   0  0  0  0  0  0  0  0  0  0  0  0
   -0.2805   -1.0542   -0.8270 C   0  0  0  0  0  0  0  0  0  0  0  0
    1.6382    1.8923    0.7557 H   0  0  0  0  0  0  0  0  0  0  0  0
    0.9627   -0.8123    1.5667 H   0  0  0  0  0  0  0  0  0  0  0  0
    2.1664   -1.2667   -0.6194 H   0  0  0  0  0  0  0  0  0  0  0  0
    3.2330    0.0967    0.0701 H   0  0  0  0  0  0  0  0  0  0  0  0
   -0.4402    1.8914    0.7629 H   0  0  0  0  0  0  0  0  0  0  0  0
   -1.1795    1.6472   -0.9005 H   0  0  0  0  0  0  0  0  0  0  0  0
   -2.7375    0.7044    0.6758 H   0  0  0  0  0  0  0  0  0  0  0  0
   -1.4027   -0.2141    1.5128 H   0  0  0  0  0  0  0  0  0  0  0  0
   -2.2572   -1.7604   -0.2245 H   0  0  0  0  0  0  0  0  0  0  0  0
   -2.2333   -0.4385   -1.4303 H   0  0  0  0  0  0  0  0  0  0  0  0
   -0.1194   -1.1293   -1.9350 H   0  0  0  0  0  0  0  0  0  0  0  0
    0.1413   -1.9577   -0.3560 H   0  0  0  0  0  0  0  0  0  0  0  0
  1  2  1  0
  2  3  1  0
  3  4  1  0
  4  5  1  0
  5  6  1  0
  6  7  1  0
  7  8  1  0
  8  9  1  0
  5  2  1  0
  9  5  1  0
  1 10  1  0
  2 11  1  0
  3 12  1  0
  3 13  1  0
  6 14  1  0
  6 15  1  0
  7 16  1  0
  7 17  1  0
  8 18  1  0
  8 19  1  0
  9 20  1  0
  9 21  1  0
M  END
