
     RDKit          3D

 18 19  0  0  0  0  0  0  0  0999 V2000
    2.3184    0.2955    0.5793 O   0  0  0  0  0  0  0  0  0  0  0  0
    1.1255    0.2347   -0.1661 C   0  0  0  0  0  0  0  0  0  0  0  0
    0.5884   -1.1566   -0.0936 C   0  0  0  0  0  0  0  0  0  0  0  0
   -0.8493   -1.3075   -0.3743 C   0  0  0  0  0  0  0  0  0  0  0  0
   -1.6310   -0.0739   -0.5692 C   0  0  0  0  0  0  0  0  0  0  0  0
   -1.0520    0.7179   -1.6847 O   0  0  0  0  0  0  0  0  0  0  0  0
   -1.1012    1.1906   -0.3670 C   0  0  0  0  0  0  0  0  0  0  0  0
    0.1922    1.2585    0.4226 C   0  0  0  0  0  0  0  0  0  0  0  0
    3.1073    0.3280   -0.0017 H   0  0  0  0  0  0  0  0  0  0  0  0
    1.3196    0.4987   -1.2147 H   0  0  0  0  0  0  0  0  0  0  0  0
    0.8612   -1.5552    0.9276 H   0  0  0  0  0  0  0  0  0  0  0  0
    1.2164   -1.7825   -0.7927 H   0  0  0  0  0  0  0  0  0  0  0  0
   -0.9723   -1.9428   -1.3012 H   0  0  0  0  0  0  0  0  0  0  0  0
   -1.3065   -1.9300    0.4366 H   0  0  0  0  0  0  0  0  0  0  0  0
   -2.7255   -0.2385   -0.7214 H   0  0  0  0  0  0  0  0  0  0  0  0
   -1.7326    2.0767   -0.2326 H   0  0  0  0  0  0  0  0  0  0  0  0
    0.6343    2.2609    0.2701 H   0  0  0  0  0  0  0  0  0  0  0  0
    0.0073    1.1256    1.4933 H   0  0  0  0  0  0  0  0  0  0  0  0
  1  2  1  0
  2  3  1  0
  3  4  1  0
  4  5  1  0
  5  6  1  0
  6  7  1  0
  7  8  1  0
  8  2  1  0
  7  5  1  0
  1  9  1  0
  2 10  1  0
  3 11  1  0
  3 12  1  0
  4 13  1  0
  4 14  1  0
  5 15  1  0
  7 16  1  0
  8 17  1  0
  8 18  1  0
M  END
