
     RDKit          3D

 21 23  0  0  0  0  0  0  0  0999 V2000
   -2.5025   -0.9370   -0.1386 O   0  0  0  0  0  0  0  0  0  0  0  0
   -2.1041    0.1206    0.6484 C   0  0  0  0  0  0  0  0  0  0  0  0
   -1.4555    1.1885   -0.2465 C   0  0  0  0  0  0  0  0  0  0  0  0
   -0.1935    0.4898   -0.0215 C   0  0  0  0  0  0  0  0  0  0  0  0
   -0.6978   -0.0825    1.2378 C   0  0  0  0  0  0  0  0  0  0  0  0
    1.1421    0.9354   -0.3211 C   0  0  0  0  0  0  0  0  0  0  0  0
    2.3288    0.0786   -0.0710 C   0  0  0  0  0  0  0  0  0  0  0  0
    1.6172   -1.1888   -0.4656 C   0  0  0  0  0  0  0  0  0  0  0  0
    0.5115   -0.3086   -1.0284 C   0  0  0  0  0  0  0  0  0  0  0  0
   -2.3207   -1.8209    0.2277 H   0  0  0  0  0  0  0  0  0  0  0  0
   -2.7974    0.5046    1.3890 H   0  0  0  0  0  0  0  0  0  0  0  0
   -1.8492    1.2317   -1.2623 H   0  0  0  0  0  0  0  0  0  0  0  0
   -1.6027    2.1744    0.2552 H   0  0  0  0  0  0  0  0  0  0  0  0
   -0.5776    0.4986    2.1650 H   0  0  0  0  0  0  0  0  0  0  0  0
   -0.4933   -1.1694    1.3288 H   0  0  0  0  0  0  0  0  0  0  0  0
    1.3156    1.8111   -0.9673 H   0  0  0  0  0  0  0  0  0  0  0  0
    3.1708    0.2500   -0.8046 H   0  0  0  0  0  0  0  0  0  0  0  0
    2.7423    0.0793    0.9686 H   0  0  0  0  0  0  0  0  0  0  0  0
    1.2948   -1.7949    0.4123 H   0  0  0  0  0  0  0  0  0  0  0  0
    2.1082   -1.8224   -1.2059 H   0  0  0  0  0  0  0  0  0  0  0  0
    0.3631   -0.2383   -2.1003 H   0  0  0  0  0  0  0  0  0  0  0  0
  1  2  1  0
  2  3  1  0
  3  4  1  0
  4  5  1  0
  4  6  1  0
  6  7  1  0
  7  8  1  0
  8  9  1  0
  5  2  1  0
  9  6  1  0
  9  4  1  0
  1 10  1  0
  2 11  1  0
  3 12  1  0
  3 13  1  0
  5 14  1  0
  5 15  1  0
  6 16  1  0
  7 17  1  0
  7 18  1  0
  8 19  1  0
  8 20  1  0
  9 21  1  0
M  END
