
     RDKit          3D

 17 19  0  0  0  0  0  0  0  0999 V2000
    2.7543    0.8058    0.7755 O   0  0  0  0  0  0  0  0  0  0  0  0
    1.3950    0.6103    0.6321 C   0  0  0  0  0  0  0  0  0  0  0  0
    0.8390    0.7014   -0.7331 C   0  0  0  0  0  0  0  0  0  0  0  0
   -0.5448    0.2605   -1.0757 C   0  0  0  0  0  0  0  0  0  0  0  0
   -1.5880    1.0107   -0.5764 O   0  0  0  0  0  0  0  0  0  0  0  0
   -2.2760    0.1560    0.3041 C   0  0  0  0  0  0  0  0  0  0  0  0
   -1.1875   -0.4278    0.9801 O   0  0  0  0  0  0  0  0  0  0  0  0
   -0.4604   -0.9263   -0.1211 C   0  0  0  0  0  0  0  0  0  0  0  0
    1.0137   -0.6818   -0.0286 C   0  0  0  0  0  0  0  0  0  0  0  0
    3.2077   -0.0804    0.8556 H   0  0  0  0  0  0  0  0  0  0  0  0
    0.7654    0.8780    1.5229 H   0  0  0  0  0  0  0  0  0  0  0  0
    1.5233    0.9237   -1.5578 H   0  0  0  0  0  0  0  0  0  0  0  0
   -0.6683   -0.0534   -2.1267 H   0  0  0  0  0  0  0  0  0  0  0  0
   -2.7839   -0.6720   -0.2443 H   0  0  0  0  0  0  0  0  0  0  0  0
   -2.9379    0.7160    0.9686 H   0  0  0  0  0  0  0  0  0  0  0  0
   -0.7986   -1.8799   -0.5165 H   0  0  0  0  0  0  0  0  0  0  0  0
    1.7469   -1.3410   -0.4834 H   0  0  0  0  0  0  0  0  0  0  0  0
  1  2  1  0
  2  3  1  0
  3  4  1  0
  4  5  1  0
  5  6  1  0
  6  7  1  0
  7  8  1  0
  8  9  1  0
  9  2  1  0
  9  3  1  0
  8  4  1  0
  1 10  1  0
  2 11  1  0
  3 12  1  0
  4 13  1  0
  6 14  1  0
  6 15  1  0
  8 16  1  0
  9 17  1  0
M  END
