
     RDKit          3D

 21 21  0  0  0  0  0  0  0  0999 V2000
    2.8404    0.2820    0.3251 O   0  0  0  0  0  0  0  0  0  0  0  0
    1.5439    0.0917   -0.1052 C   0  0  0  0  0  0  0  0  0  0  0  0
    0.6158    0.8871    0.8225 C   0  0  0  0  0  0  0  0  0  0  0  0
   -0.5304    1.3553    0.0040 C   0  0  0  0  0  0  0  0  0  0  0  0
   -1.5875    0.3659   -0.2678 C   0  0  0  0  0  0  0  0  0  0  0  0
   -2.6314    0.5164    0.6745 O   0  0  0  0  0  0  0  0  0  0  0  0
   -1.1719   -1.0529   -0.3588 C   0  0  0  0  0  0  0  0  0  0  0  0
   -0.1824   -1.4458    0.4973 O   0  0  0  0  0  0  0  0  0  0  0  0
    1.0990   -1.3506   -0.0418 C   0  0  0  0  0  0  0  0  0  0  0  0
    3.4228    0.3491   -0.4606 H   0  0  0  0  0  0  0  0  0  0  0  0
    1.4412    0.4898   -1.1550 H   0  0  0  0  0  0  0  0  0  0  0  0
    0.3153    0.2084    1.6637 H   0  0  0  0  0  0  0  0  0  0  0  0
    1.1797    1.7042    1.2672 H   0  0  0  0  0  0  0  0  0  0  0  0
   -0.1183    1.7399   -0.9682 H   0  0  0  0  0  0  0  0  0  0  0  0
   -0.9790    2.2493    0.5255 H   0  0  0  0  0  0  0  0  0  0  0  0
   -2.0745    0.6389   -1.2511 H   0  0  0  0  0  0  0  0  0  0  0  0
   -3.1197   -0.3312    0.7910 H   0  0  0  0  0  0  0  0  0  0  0  0
   -0.9411   -1.3246   -1.4310 H   0  0  0  0  0  0  0  0  0  0  0  0
   -2.0788   -1.6862   -0.1216 H   0  0  0  0  0  0  0  0  0  0  0  0
    1.7986   -1.8722    0.6473 H   0  0  0  0  0  0  0  0  0  0  0  0
    1.1584   -1.8148   -1.0567 H   0  0  0  0  0  0  0  0  0  0  0  0
  1  2  1  0
  2  3  1  0
  3  4  1  0
  4  5  1  0
  5  6  1  0
  5  7  1  0
  7  8  1  0
  8  9  1  0
  9  2  1  0
  1 10  1  0
  2 11  1  0
  3 12  1  0
  3 13  1  0
  4 14  1  0
  4 15  1  0
  5 16  1  0
  6 17  1  0
  7 18  1  0
  7 19  1  0
  9 20  1  0
  9 21  1  0
M  END
