
     RDKit          3D

 17 17  0  0  0  0  0  0  0  0999 V2000
   -1.9822   -1.3612   -0.0567 O   0  0  0  0  0  0  0  0  0  0  0  0
   -0.9281   -0.5823    0.4714 C   0  0  0  0  0  0  0  0  0  0  0  0
   -1.1508    0.8368    0.0842 C   0  0  0  0  0  0  0  0  0  0  0  0
    0.0919    1.5700   -0.2734 C   0  0  0  0  0  0  0  0  0  0  0  0
    1.3068    1.0968   -0.1705 C   0  0  0  0  0  0  0  0  0  0  0  0
    1.5263   -0.2909    0.3434 C   0  0  0  0  0  0  0  0  0  0  0  0
    0.3504   -1.1072   -0.1421 C   0  0  0  0  0  0  0  0  0  0  0  0
   -1.6915   -1.8296   -0.8679 H   0  0  0  0  0  0  0  0  0  0  0  0
   -0.9604   -0.7577    1.5665 H   0  0  0  0  0  0  0  0  0  0  0  0
   -1.8091    0.8711   -0.8189 H   0  0  0  0  0  0  0  0  0  0  0  0
   -1.6826    1.3384    0.9380 H   0  0  0  0  0  0  0  0  0  0  0  0
   -0.0401    2.5796   -0.6491 H   0  0  0  0  0  0  0  0  0  0  0  0
    2.1381    1.7302   -0.4641 H   0  0  0  0  0  0  0  0  0  0  0  0
    1.6422   -0.2959    1.4355 H   0  0  0  0  0  0  0  0  0  0  0  0
    2.4309   -0.7147   -0.1182 H   0  0  0  0  0  0  0  0  0  0  0  0
    0.2722   -0.9006   -1.2472 H   0  0  0  0  0  0  0  0  0  0  0  0
    0.4859   -2.1830   -0.0308 H   0  0  0  0  0  0  0  0  0  0  0  0
  1  2  1  0
  2  3  1  0
  3  4  1  0
  4  5  2  0
  5  6  1  0
  6  7  1  0
  7  2  1  0
  1  8  1  0
  2  9  1  0
  3 10  1  0
  3 11  1  0
  4 12  1  0
  5 13  1  0
  6 14  1  0
  6 15  1  0
  7 16  1  0
  7 17  1  0
M  END
