
     RDKit          3D

 21 22  0  0  0  0  0  0  0  0999 V2000
   -1.1739   -1.8503    0.9304 O   0  0  0  0  0  0  0  0  0  0  0  0
   -1.1228   -0.9215   -0.0947 C   0  0  0  0  0  0  0  0  0  0  0  0
   -2.0786    0.2493    0.1890 C   0  0  0  0  0  0  0  0  0  0  0  0
   -0.9522    1.1594   -0.3256 C   0  0  0  0  0  0  0  0  0  0  0  0
   -0.0187    0.0543    0.0024 C   0  0  0  0  0  0  0  0  0  0  0  0
    0.7623    0.1314    1.2619 C   0  0  0  0  0  0  0  0  0  0  0  0
    1.9716    0.5152    0.3931 C   0  0  0  0  0  0  0  0  0  0  0  0
    1.2061   -0.1225   -0.7768 C   0  0  0  0  0  0  0  0  0  0  0  0
    1.3448    0.5611   -1.9713 O   0  0  0  0  0  0  0  0  0  0  0  0
   -0.8815   -2.7592    0.6497 H   0  0  0  0  0  0  0  0  0  0  0  0
   -1.2760   -1.3575   -1.1042 H   0  0  0  0  0  0  0  0  0  0  0  0
   -2.9854    0.2562   -0.4136 H   0  0  0  0  0  0  0  0  0  0  0  0
   -2.1928    0.3673    1.2869 H   0  0  0  0  0  0  0  0  0  0  0  0
   -0.8252    2.0881    0.2292 H   0  0  0  0  0  0  0  0  0  0  0  0
   -1.0233    1.2839   -1.4464 H   0  0  0  0  0  0  0  0  0  0  0  0
    0.4884    0.8962    1.9960 H   0  0  0  0  0  0  0  0  0  0  0  0
    0.8597   -0.8858    1.7191 H   0  0  0  0  0  0  0  0  0  0  0  0
    2.9015    0.0192    0.6592 H   0  0  0  0  0  0  0  0  0  0  0  0
    1.9918    1.6328    0.3445 H   0  0  0  0  0  0  0  0  0  0  0  0
    1.5281   -1.1984   -0.8392 H   0  0  0  0  0  0  0  0  0  0  0  0
    1.4760   -0.1192   -2.6897 H   0  0  0  0  0  0  0  0  0  0  0  0
  1  2  1  0
  2  3  1  0
  3  4  1  0
  4  5  1  0
  5  6  1  0
  6  7  1  0
  7  8  1  0
  8  9  1  0
  5  2  1  0
  8  5  1  0
  1 10  1  0
  2 11  1  0
  3 12  1  0
  3 13  1  0
  4 14  1  0
  4 15  1  0
  6 16  1  0
  6 17  1  0
  7 18  1  0
  7 19  1  0
  8 20  1  0
  9 21  1  0
M  END
