
     RDKit          3D

 19 21  0  0  0  0  0  0  0  0999 V2000
   -1.5795   -1.1056   -1.3317 O   0  0  0  0  0  0  0  0  0  0  0  0
   -1.0629   -0.7788   -0.0646 C   0  0  0  0  0  0  0  0  0  0  0  0
   -1.9020    0.2773    0.6116 C   0  0  0  0  0  0  0  0  0  0  0  0
   -0.8842    1.3272    0.1400 C   0  0  0  0  0  0  0  0  0  0  0  0
    0.0271    0.2255   -0.1995 C   0  0  0  0  0  0  0  0  0  0  0  0
    0.6888    0.2214   -1.3828 O   0  0  0  0  0  0  0  0  0  0  0  0
    1.6999   -0.5427   -0.7538 C   0  0  0  0  0  0  0  0  0  0  0  0
    2.6194    0.2370    0.0871 C   0  0  0  0  0  0  0  0  0  0  0  0
    1.2571    0.0278    0.6215 C   0  0  0  0  0  0  0  0  0  0  0  0
   -2.5276   -1.3958   -1.2788 H   0  0  0  0  0  0  0  0  0  0  0  0
   -0.8337   -1.6740    0.5161 H   0  0  0  0  0  0  0  0  0  0  0  0
   -2.8713    0.5026    0.1434 H   0  0  0  0  0  0  0  0  0  0  0  0
   -1.9688    0.1909    1.7180 H   0  0  0  0  0  0  0  0  0  0  0  0
   -1.2187    1.9268   -0.7175 H   0  0  0  0  0  0  0  0  0  0  0  0
   -0.6139    1.9681    1.0065 H   0  0  0  0  0  0  0  0  0  0  0  0
    1.6584   -1.6251   -0.7987 H   0  0  0  0  0  0  0  0  0  0  0  0
    2.9134    1.2388   -0.3394 H   0  0  0  0  0  0  0  0  0  0  0  0
    3.4489   -0.3305    0.5736 H   0  0  0  0  0  0  0  0  0  0  0  0
    1.1498   -0.6910    1.4490 H   0  0  0  0  0  0  0  0  0  0  0  0
  1  2  1  0
  2  3  1  0
  3  4  1  0
  4  5  1  0
  5  6  1  0
  6  7  1  0
  7  8  1  0
  8  9  1  0
  5  2  1  0
  9  7  1  0
  9  5  1  0
  1 10  1  0
  2 11  1  0
  3 12  1  0
  3 13  1  0
  4 14  1  0
  4 15  1  0
  7 16  1  0
  8 17  1  0
  8 18  1  0
  9 19  1  0
M  END
