
     RDKit          3D

 21 22  0  0  0  0  0  0  0  0999 V2000
   -1.8373    0.3310    1.2459 O   0  0  0  0  0  0  0  0  0  0  0  0
   -1.3702    0.4281   -0.0851 C   0  0  0  0  0  0  0  0  0  0  0  0
   -1.0379   -0.9436   -0.5412 C   0  0  0  0  0  0  0  0  0  0  0  0
    0.4096   -1.2748   -0.1758 C   0  0  0  0  0  0  0  0  0  0  0  0
    0.6807   -0.7853    1.2072 C   0  0  0  0  0  0  0  0  0  0  0  0
    1.3439    0.3664    1.1776 C   0  0  0  0  0  0  0  0  0  0  0  0
    1.0870    0.9435   -0.1888 C   0  0  0  0  0  0  0  0  0  0  0  0
   -0.3133    1.4462   -0.2604 C   0  0  0  0  0  0  0  0  0  0  0  0
    1.2533   -0.3258   -1.0348 C   0  0  0  0  0  0  0  0  0  0  0  0
   -2.1818   -0.6055    1.4069 H   0  0  0  0  0  0  0  0  0  0  0  0
   -2.2738    0.7683   -0.6715 H   0  0  0  0  0  0  0  0  0  0  0  0
   -1.1060   -1.0944   -1.6398 H   0  0  0  0  0  0  0  0  0  0  0  0
   -1.7115   -1.6718   -0.0370 H   0  0  0  0  0  0  0  0  0  0  0  0
    0.6591   -2.3187   -0.3323 H   0  0  0  0  0  0  0  0  0  0  0  0
    0.3994   -1.2616    2.1465 H   0  0  0  0  0  0  0  0  0  0  0  0
    1.9517    0.8329    1.9437 H   0  0  0  0  0  0  0  0  0  0  0  0
    1.7930    1.7223   -0.4590 H   0  0  0  0  0  0  0  0  0  0  0  0
   -0.4225    2.0529   -1.1988 H   0  0  0  0  0  0  0  0  0  0  0  0
   -0.4315    2.2074    0.5664 H   0  0  0  0  0  0  0  0  0  0  0  0
    0.8069   -0.1873   -2.0264 H   0  0  0  0  0  0  0  0  0  0  0  0
    2.3012   -0.6301   -1.0433 H   0  0  0  0  0  0  0  0  0  0  0  0
  1  2  1  0
  2  3  1  0
  3  4  1  0
  4  5  1  0
  5  6  2  0
  6  7  1  0
  7  8  1  0
  7  9  1  0
  8  2  1  0
  9  4  1  0
  1 10  1  0
  2 11  1  0
  3 12  1  0
  3 13  1  0
  4 14  1  0
  5 15  1  0
  6 16  1  0
  7 17  1  0
  8 18  1  0
  8 19  1  0
  9 20  1  0
  9 21  1  0
M  END
