
     RDKit          3D

 16 17  0  0  0  0  0  0  0  0999 V2000
   -0.0131    2.1915   -0.3195 O   0  0  0  0  0  0  0  0  0  0  0  0
    0.1001    0.8232   -0.4650 C   0  0  0  0  0  0  0  0  0  0  0  0
   -1.2578    0.1212   -0.3408 C   0  0  0  0  0  0  0  0  0  0  0  0
   -0.8409   -1.3048   -0.1043 C   0  0  0  0  0  0  0  0  0  0  0  0
    0.3947   -1.7114   -0.7851 O   0  0  0  0  0  0  0  0  0  0  0  0
    0.3879   -1.2663    0.6175 C   0  0  0  0  0  0  0  0  0  0  0  0
    0.8432    0.1683    0.6763 C   0  0  0  0  0  0  0  0  0  0  0  0
    2.2162    0.1792    0.4680 O   0  0  0  0  0  0  0  0  0  0  0  0
   -0.9070    2.4093    0.0261 H   0  0  0  0  0  0  0  0  0  0  0  0
    0.4892    0.5304   -1.4599 H   0  0  0  0  0  0  0  0  0  0  0  0
   -1.7247    0.5644    0.5718 H   0  0  0  0  0  0  0  0  0  0  0  0
   -1.8836    0.2761   -1.2136 H   0  0  0  0  0  0  0  0  0  0  0  0
   -1.5601   -2.1173   -0.1553 H   0  0  0  0  0  0  0  0  0  0  0  0
    0.7558   -2.0045    1.3329 H   0  0  0  0  0  0  0  0  0  0  0  0
    0.5790    0.6755    1.6039 H   0  0  0  0  0  0  0  0  0  0  0  0
    2.4211    0.4653   -0.4532 H   0  0  0  0  0  0  0  0  0  0  0  0
  1  2  1  0
  2  3  1  0
  3  4  1  0
  4  5  1  0
  5  6  1  0
  6  7  1  0
  7  8  1  0
  7  2  1  0
  6  4  1  0
  1  9  1  0
  2 10  1  0
  3 11  1  0
  3 12  1  0
  4 13  1  0
  6 14  1  0
  7 15  1  0
  8 16  1  0
M  END
