
     RDKit          3D

 19 20  0  0  0  0  0  0  0  0999 V2000
   -2.1798   -1.4085    0.4673 O   0  0  0  0  0  0  0  0  0  0  0  0
   -1.3944   -0.6259   -0.3524 C   0  0  0  0  0  0  0  0  0  0  0  0
   -1.3637    0.8331    0.0186 C   0  0  0  0  0  0  0  0  0  0  0  0
   -1.6119    1.7518   -0.9795 O   0  0  0  0  0  0  0  0  0  0  0  0
   -0.1512    0.0091    0.0720 C   0  0  0  0  0  0  0  0  0  0  0  0
    0.9267    0.2837   -0.9419 C   0  0  0  0  0  0  0  0  0  0  0  0
    2.1466   -0.2808   -0.2463 C   0  0  0  0  0  0  0  0  0  0  0  0
    1.9245   -0.1584    1.1161 O   0  0  0  0  0  0  0  0  0  0  0  0
    0.5666   -0.2919    1.3352 C   0  0  0  0  0  0  0  0  0  0  0  0
   -1.6931   -2.2073    0.8117 H   0  0  0  0  0  0  0  0  0  0  0  0
   -1.4804   -0.8332   -1.4587 H   0  0  0  0  0  0  0  0  0  0  0  0
   -1.7713    1.1476    1.0205 H   0  0  0  0  0  0  0  0  0  0  0  0
   -1.5282    2.6690   -0.6476 H   0  0  0  0  0  0  0  0  0  0  0  0
    0.9897    1.3627   -1.1289 H   0  0  0  0  0  0  0  0  0  0  0  0
    0.7424   -0.2945   -1.8592 H   0  0  0  0  0  0  0  0  0  0  0  0
    2.1473   -1.3775   -0.4676 H   0  0  0  0  0  0  0  0  0  0  0  0
    3.0653    0.2266   -0.5737 H   0  0  0  0  0  0  0  0  0  0  0  0
    0.2870    0.5057    2.0804 H   0  0  0  0  0  0  0  0  0  0  0  0
    0.3778   -1.3113    1.7338 H   0  0  0  0  0  0  0  0  0  0  0  0
  1  2  1  0
  2  3  1  0
  3  4  1  0
  3  5  1  0
  5  6  1  0
  6  7  1  0
  7  8  1  0
  8  9  1  0
  5  2  1  0
  9  5  1  0
  1 10  1  0
  2 11  1  0
  3 12  1  0
  4 13  1  0
  6 14  1  0
  6 15  1  0
  7 16  1  0
  7 17  1  0
  9 18  1  0
  9 19  1  0
M  END
