
     RDKit          3D

 21 22  0  0  0  0  0  0  0  0999 V2000
    2.5250   -0.3973   -0.4094 O   0  0  0  0  0  0  0  0  0  0  0  0
    1.1994   -0.4645   -0.7883 C   0  0  0  0  0  0  0  0  0  0  0  0
    0.5700    0.9340   -0.9000 C   0  0  0  0  0  0  0  0  0  0  0  0
   -0.5317    0.9521    0.1553 C   0  0  0  0  0  0  0  0  0  0  0  0
   -0.8647    2.1801    0.5971 O   0  0  0  0  0  0  0  0  0  0  0  0
   -1.6609    0.0669   -0.2715 C   0  0  0  0  0  0  0  0  0  0  0  0
   -1.0398   -1.3374   -0.2122 C   0  0  0  0  0  0  0  0  0  0  0  0
    0.3747   -1.1247    0.2834 C   0  0  0  0  0  0  0  0  0  0  0  0
    0.1431    0.0721    1.2217 C   0  0  0  0  0  0  0  0  0  0  0  0
    2.6770   -0.3175    0.5530 H   0  0  0  0  0  0  0  0  0  0  0  0
    1.1449   -0.9480   -1.7645 H   0  0  0  0  0  0  0  0  0  0  0  0
    0.0923    1.0838   -1.8712 H   0  0  0  0  0  0  0  0  0  0  0  0
    1.2888    1.7234   -0.6319 H   0  0  0  0  0  0  0  0  0  0  0  0
   -0.1721    2.5766    1.1526 H   0  0  0  0  0  0  0  0  0  0  0  0
   -2.0141    0.2660   -1.2993 H   0  0  0  0  0  0  0  0  0  0  0  0
   -2.4591    0.1063    0.4904 H   0  0  0  0  0  0  0  0  0  0  0  0
   -1.5500   -1.9560    0.5738 H   0  0  0  0  0  0  0  0  0  0  0  0
   -1.0982   -1.8508   -1.1736 H   0  0  0  0  0  0  0  0  0  0  0  0
    0.8223   -1.9691    0.7709 H   0  0  0  0  0  0  0  0  0  0  0  0
   -0.5243   -0.1682    2.0425 H   0  0  0  0  0  0  0  0  0  0  0  0
    1.0775    0.5724    1.4810 H   0  0  0  0  0  0  0  0  0  0  0  0
  1  2  1  0
  2  3  1  0
  3  4  1  0
  4  5  1  0
  4  6  1  0
  6  7  1  0
  7  8  1  0
  8  9  1  0
  8  2  1  0
  9  4  1  0
  1 10  1  0
  2 11  1  0
  3 12  1  0
  3 13  1  0
  5 14  1  0
  6 15  1  0
  6 16  1  0
  7 17  1  0
  7 18  1  0
  8 19  1  0
  9 20  1  0
  9 21  1  0
M  END
