
     RDKit          3D

 16 18  0  0  0  0  0  0  0  0999 V2000
    2.4112   -0.3246    0.6499 O   0  0  0  0  0  0  0  0  0  0  0  0
    1.0689   -0.7016    0.6397 C   0  0  0  0  0  0  0  0  0  0  0  0
    0.4808   -0.5097   -0.7664 C   0  0  0  0  0  0  0  0  0  0  0  0
   -0.7067   -1.1937   -0.8472 O   0  0  0  0  0  0  0  0  0  0  0  0
   -1.7532   -0.3846   -0.5133 C   0  0  0  0  0  0  0  0  0  0  0  0
   -1.1369    0.6688    0.3863 C   0  0  0  0  0  0  0  0  0  0  0  0
    0.1521    0.4246    1.0700 C   0  0  0  0  0  0  0  0  0  0  0  0
    0.1461    0.8754   -0.3124 C   0  0  0  0  0  0  0  0  0  0  0  0
    2.7530   -0.1335   -0.2627 H   0  0  0  0  0  0  0  0  0  0  0  0
    0.8898   -1.6745    1.0869 H   0  0  0  0  0  0  0  0  0  0  0  0
    1.1945   -0.6229   -1.5771 H   0  0  0  0  0  0  0  0  0  0  0  0
   -2.1371    0.0957   -1.4604 H   0  0  0  0  0  0  0  0  0  0  0  0
   -2.5787   -0.8638    0.0103 H   0  0  0  0  0  0  0  0  0  0  0  0
   -1.6945    1.5439    0.6873 H   0  0  0  0  0  0  0  0  0  0  0  0
    0.3931    1.0280    1.9381 H   0  0  0  0  0  0  0  0  0  0  0  0
    0.5177    1.7725   -0.7290 H   0  0  0  0  0  0  0  0  0  0  0  0
  1  2  1  0
  2  3  1  0
  3  4  1  0
  4  5  1  0
  5  6  1  0
  6  7  1  0
  7  8  1  0
  7  2  1  0
  8  3  1  0
  8  6  1  0
  1  9  1  0
  2 10  1  0
  3 11  1  0
  5 12  1  0
  5 13  1  0
  6 14  1  0
  7 15  1  0
  8 16  1  0
M  END
