
     RDKit          3D

 19 21  0  0  0  0  0  0  0  0999 V2000
   -2.6827    0.7549    0.3138 O   0  0  0  0  0  0  0  0  0  0  0  0
   -2.0238   -0.4521    0.2133 C   0  0  0  0  0  0  0  0  0  0  0  0
   -0.7265   -0.3792    1.0284 C   0  0  0  0  0  0  0  0  0  0  0  0
   -0.0400    0.0145   -0.2483 C   0  0  0  0  0  0  0  0  0  0  0  0
   -1.1259   -0.5793   -1.0247 C   0  0  0  0  0  0  0  0  0  0  0  0
    0.2986    1.3193   -0.4099 O   0  0  0  0  0  0  0  0  0  0  0  0
    1.6512    1.1050   -0.3924 C   0  0  0  0  0  0  0  0  0  0  0  0
    2.3173    0.2063    0.5756 C   0  0  0  0  0  0  0  0  0  0  0  0
    1.3556   -0.4008   -0.4439 C   0  0  0  0  0  0  0  0  0  0  0  0
   -2.0147    1.4974    0.4008 H   0  0  0  0  0  0  0  0  0  0  0  0
   -2.6260   -1.3249    0.4421 H   0  0  0  0  0  0  0  0  0  0  0  0
   -0.3999   -1.3761    1.3839 H   0  0  0  0  0  0  0  0  0  0  0  0
   -0.7041    0.4358    1.7663 H   0  0  0  0  0  0  0  0  0  0  0  0
   -1.0129   -1.6609   -1.2839 H   0  0  0  0  0  0  0  0  0  0  0  0
   -1.5602   -0.0316   -1.8729 H   0  0  0  0  0  0  0  0  0  0  0  0
    2.2491    1.5543   -1.1893 H   0  0  0  0  0  0  0  0  0  0  0  0
    3.3892    0.0658    0.4574 H   0  0  0  0  0  0  0  0  0  0  0  0
    1.9123    0.1284    1.6249 H   0  0  0  0  0  0  0  0  0  0  0  0
    1.7434   -0.8766   -1.3411 H   0  0  0  0  0  0  0  0  0  0  0  0
  1  2  1  0
  2  3  1  0
  3  4  1  0
  4  5  1  0
  4  6  1  0
  6  7  1  0
  7  8  1  0
  8  9  1  0
  5  2  1  0
  9  7  1  0
  9  4  1  0
  1 10  1  0
  2 11  1  0
  3 12  1  0
  3 13  1  0
  5 14  1  0
  5 15  1  0
  7 16  1  0
  8 17  1  0
  8 18  1  0
  9 19  1  0
M  END
