
     RDKit          3D

 19 21  0  0  0  0  0  0  0  0999 V2000
    0.7635   -1.6216    1.3057 O   0  0  0  0  0  0  0  0  0  0  0  0
    0.0356   -0.4391    1.0347 C   0  0  0  0  0  0  0  0  0  0  0  0
    0.9694    0.5678    0.5265 C   0  0  0  0  0  0  0  0  0  0  0  0
    2.1160    0.5880   -0.2933 C   0  0  0  0  0  0  0  0  0  0  0  0
    0.9382    0.2297   -1.0021 C   0  0  0  0  0  0  0  0  0  0  0  0
   -0.1898    0.8059   -1.4136 O   0  0  0  0  0  0  0  0  0  0  0  0
   -1.2157    0.7787   -0.5390 C   0  0  0  0  0  0  0  0  0  0  0  0
   -2.2974   -0.0676   -0.2134 C   0  0  0  0  0  0  0  0  0  0  0  0
   -1.0541   -0.6536    0.0745 C   0  0  0  0  0  0  0  0  0  0  0  0
    1.0263   -1.9820    0.4269 H   0  0  0  0  0  0  0  0  0  0  0  0
   -0.4095   -0.1664    2.0288 H   0  0  0  0  0  0  0  0  0  0  0  0
    0.6878    1.5777    0.8696 H   0  0  0  0  0  0  0  0  0  0  0  0
    2.6088    1.5459   -0.6013 H   0  0  0  0  0  0  0  0  0  0  0  0
    2.9234   -0.1531   -0.0785 H   0  0  0  0  0  0  0  0  0  0  0  0
    0.9518   -0.8480   -1.2980 H   0  0  0  0  0  0  0  0  0  0  0  0
   -1.1325    1.6581    0.1361 H   0  0  0  0  0  0  0  0  0  0  0  0
   -2.9676    0.1870    0.6617 H   0  0  0  0  0  0  0  0  0  0  0  0
   -2.9710   -0.5213   -0.9960 H   0  0  0  0  0  0  0  0  0  0  0  0
   -0.7832   -1.4860   -0.6292 H   0  0  0  0  0  0  0  0  0  0  0  0
  1  2  1  0
  2  3  1  0
  3  4  1  0
  4  5  1  0
  5  6  1  0
  6  7  1  0
  7  8  1  0
  8  9  1  0
  9  2  1  0
  5  3  1  0
  9  7  1  0
  1 10  1  0
  2 11  1  0
  3 12  1  0
  4 13  1  0
  4 14  1  0
  5 15  1  0
  7 16  1  0
  8 17  1  0
  8 18  1  0
  9 19  1  0
M  END
