
     RDKit          3D

 17 18  0  0  0  0  0  0  0  0999 V2000
   -1.6782   -1.7812   -0.2063 O   0  0  0  0  0  0  0  0  0  0  0  0
   -1.2042   -0.4928   -0.0339 C   0  0  0  0  0  0  0  0  0  0  0  0
   -0.4706   -0.2739    1.2900 C   0  0  0  0  0  0  0  0  0  0  0  0
    0.7454    0.1141    0.5236 C   0  0  0  0  0  0  0  0  0  0  0  0
    2.0036   -0.2075    0.8976 O   0  0  0  0  0  0  0  0  0  0  0  0
    0.5958    1.1986   -0.5726 C   0  0  0  0  0  0  0  0  0  0  0  0
   -0.2464    2.2292   -0.1112 O   0  0  0  0  0  0  0  0  0  0  0  0
    0.0956   -0.1751   -0.7311 C   0  0  0  0  0  0  0  0  0  0  0  0
    0.5859   -1.0121   -1.7101 O   0  0  0  0  0  0  0  0  0  0  0  0
   -2.5931   -1.8060    0.1649 H   0  0  0  0  0  0  0  0  0  0  0  0
   -2.0076    0.2453   -0.1958 H   0  0  0  0  0  0  0  0  0  0  0  0
   -0.3337   -1.2070    1.8312 H   0  0  0  0  0  0  0  0  0  0  0  0
   -0.8516    0.5934    1.8758 H   0  0  0  0  0  0  0  0  0  0  0  0
    2.4814   -0.8588    0.3372 H   0  0  0  0  0  0  0  0  0  0  0  0
    1.5455    1.4923   -1.0495 H   0  0  0  0  0  0  0  0  0  0  0  0
   -0.2472    2.9878   -0.7225 H   0  0  0  0  0  0  0  0  0  0  0  0
    1.5794   -1.0463   -1.5872 H   0  0  0  0  0  0  0  0  0  0  0  0
  1  2  1  0
  2  3  1  0
  3  4  1  0
  4  5  1  0
  4  6  1  0
  6  7  1  0
  6  8  1  0
  8  9  1  0
  8  2  1  0
  8  4  1  0
  1 10  1  0
  2 11  1  0
  3 12  1  0
  3 13  1  0
  5 14  1  0
  6 15  1  0
  7 16  1  0
  9 17  1  0
M  END
