
     RDKit          3D

 21 22  0  0  0  0  0  0  0  0999 V2000
   -0.7592    1.9626    1.1358 O   0  0  0  0  0  0  0  0  0  0  0  0
   -1.0147    0.6641    0.7644 C   0  0  0  0  0  0  0  0  0  0  0  0
   -2.3135    0.5040    0.0022 C   0  0  0  0  0  0  0  0  0  0  0  0
   -2.1213   -0.8266   -0.6267 C   0  0  0  0  0  0  0  0  0  0  0  0
   -0.8237   -1.0435   -0.7739 C   0  0  0  0  0  0  0  0  0  0  0  0
   -0.0399    0.1230   -0.2553 C   0  0  0  0  0  0  0  0  0  0  0  0
    1.2523   -0.3362    0.3524 C   0  0  0  0  0  0  0  0  0  0  0  0
    2.2417   -0.8818   -0.6553 C   0  0  0  0  0  0  0  0  0  0  0  0
    2.5158    0.3960    0.0835 C   0  0  0  0  0  0  0  0  0  0  0  0
   -0.7912    1.9953    2.1408 H   0  0  0  0  0  0  0  0  0  0  0  0
   -1.0757   -0.0288    1.6325 H   0  0  0  0  0  0  0  0  0  0  0  0
   -3.1992    0.5495    0.6585 H   0  0  0  0  0  0  0  0  0  0  0  0
   -2.3634    1.2396   -0.8297 H   0  0  0  0  0  0  0  0  0  0  0  0
   -2.9452   -1.4789   -0.9027 H   0  0  0  0  0  0  0  0  0  0  0  0
   -0.4007   -1.9363   -1.2068 H   0  0  0  0  0  0  0  0  0  0  0  0
    0.0736    0.8525   -1.0683 H   0  0  0  0  0  0  0  0  0  0  0  0
    1.1599   -0.8818    1.2883 H   0  0  0  0  0  0  0  0  0  0  0  0
    2.0105   -0.7904   -1.7350 H   0  0  0  0  0  0  0  0  0  0  0  0
    2.8098   -1.8010   -0.4151 H   0  0  0  0  0  0  0  0  0  0  0  0
    3.2765    0.3638    0.8807 H   0  0  0  0  0  0  0  0  0  0  0  0
    2.5079    1.3550   -0.4703 H   0  0  0  0  0  0  0  0  0  0  0  0
  1  2  1  0
  2  3  1  0
  3  4  1  0
  4  5  2  0
  5  6  1  0
  6  7  1  0
  7  8  1  0
  8  9  1  0
  6  2  1  0
  9  7  1  0
  1 10  1  0
  2 11  1  0
  3 12  1  0
  3 13  1  0
  4 14  1  0
  5 15  1  0
  6 16  1  0
  7 17  1  0
  8 18  1  0
  8 19  1  0
  9 20  1  0
  9 21  1  0
M  END
