
     RDKit          3D

 19 21  0  0  0  0  0  0  0  0999 V2000
   -3.0600    0.4647   -0.2917 O   0  0  0  0  0  0  0  0  0  0  0  0
   -1.6901    0.3620   -0.5089 C   0  0  0  0  0  0  0  0  0  0  0  0
   -0.9209   -0.2619    0.6168 C   0  0  0  0  0  0  0  0  0  0  0  0
    0.1304   -1.2534    0.1762 C   0  0  0  0  0  0  0  0  0  0  0  0
    1.0863   -0.5243   -0.6695 C   0  0  0  0  0  0  0  0  0  0  0  0
    2.3988   -0.0407   -0.4535 C   0  0  0  0  0  0  0  0  0  0  0  0
    1.4206    0.7231    0.2199 C   0  0  0  0  0  0  0  0  0  0  0  0
    0.4720    1.5947   -0.1727 O   0  0  0  0  0  0  0  0  0  0  0  0
   -0.7495    1.1253    0.3075 C   0  0  0  0  0  0  0  0  0  0  0  0
   -3.3141    0.1367    0.6245 H   0  0  0  0  0  0  0  0  0  0  0  0
   -1.3960    0.1321   -1.5462 H   0  0  0  0  0  0  0  0  0  0  0  0
   -1.4445   -0.5653    1.5468 H   0  0  0  0  0  0  0  0  0  0  0  0
   -0.4126   -2.0527   -0.4063 H   0  0  0  0  0  0  0  0  0  0  0  0
    0.6003   -1.7862    1.0285 H   0  0  0  0  0  0  0  0  0  0  0  0
    0.6291   -0.3114   -1.6824 H   0  0  0  0  0  0  0  0  0  0  0  0
    2.9429    0.4305   -1.3218 H   0  0  0  0  0  0  0  0  0  0  0  0
    3.1563   -0.6085    0.1586 H   0  0  0  0  0  0  0  0  0  0  0  0
    1.3563    0.5725    1.3408 H   0  0  0  0  0  0  0  0  0  0  0  0
   -1.2051    1.8629    1.0336 H   0  0  0  0  0  0  0  0  0  0  0  0
  1  2  1  0
  2  3  1  0
  3  4  1  0
  4  5  1  0
  5  6  1  0
  6  7  1  0
  7  8  1  0
  8  9  1  0
  9  2  1  0
  9  3  1  0
  7  5  1  0
  1 10  1  0
  2 11  1  0
  3 12  1  0
  4 13  1  0
  4 14  1  0
  5 15  1  0
  6 16  1  0
  6 17  1  0
  7 18  1  0
  9 19  1  0
M  END
