
     RDKit          3D

 21 22  0  0  0  0  0  0  0  0999 V2000
   -2.2308   -1.1108    0.7862 O   0  0  0  0  0  0  0  0  0  0  0  0
   -1.3098   -0.6262   -0.1454 C   0  0  0  0  0  0  0  0  0  0  0  0
   -1.2602    0.8576   -0.1765 C   0  0  0  0  0  0  0  0  0  0  0  0
    0.0437    1.4626    0.2054 C   0  0  0  0  0  0  0  0  0  0  0  0
    1.1824    0.4878    0.0766 C   0  0  0  0  0  0  0  0  0  0  0  0
    2.4456    1.0049    0.1445 O   0  0  0  0  0  0  0  0  0  0  0  0
    0.8803   -0.6301    1.0868 C   0  0  0  0  0  0  0  0  0  0  0  0
    0.0469   -1.2623    0.0031 C   0  0  0  0  0  0  0  0  0  0  0  0
    0.9576   -0.5424   -1.0028 C   0  0  0  0  0  0  0  0  0  0  0  0
   -3.1366   -0.9178    0.3813 H   0  0  0  0  0  0  0  0  0  0  0  0
   -1.7021   -0.9680   -1.1485 H   0  0  0  0  0  0  0  0  0  0  0  0
   -1.5518    1.2818   -1.1816 H   0  0  0  0  0  0  0  0  0  0  0  0
   -2.0744    1.2332    0.5114 H   0  0  0  0  0  0  0  0  0  0  0  0
    0.2410    2.4348   -0.2959 H   0  0  0  0  0  0  0  0  0  0  0  0
   -0.0206    1.7199    1.3042 H   0  0  0  0  0  0  0  0  0  0  0  0
    2.9836    0.7854   -0.6754 H   0  0  0  0  0  0  0  0  0  0  0  0
    0.3462   -0.2902    1.9837 H   0  0  0  0  0  0  0  0  0  0  0  0
    1.8050   -1.2082    1.2382 H   0  0  0  0  0  0  0  0  0  0  0  0
    0.0452   -2.3434   -0.0645 H   0  0  0  0  0  0  0  0  0  0  0  0
    1.8684   -1.1544   -1.1285 H   0  0  0  0  0  0  0  0  0  0  0  0
    0.4405   -0.2141   -1.9024 H   0  0  0  0  0  0  0  0  0  0  0  0
  1  2  1  0
  2  3  1  0
  3  4  1  0
  4  5  1  0
  5  6  1  0
  5  7  1  0
  7  8  1  0
  8  9  1  0
  8  2  1  0
  9  5  1  0
  1 10  1  0
  2 11  1  0
  3 12  1  0
  3 13  1  0
  4 14  1  0
  4 15  1  0
  6 16  1  0
  7 17  1  0
  7 18  1  0
  8 19  1  0
  9 20  1  0
  9 21  1  0
M  END
