
     RDKit          3D

 18 19  0  0  0  0  0  0  0  0999 V2000
    2.0027   -0.5246   -0.8102 O   0  0  0  0  0  0  0  0  0  0  0  0
    1.1466   -0.0882    0.2015 C   0  0  0  0  0  0  0  0  0  0  0  0
    0.0470   -1.0978    0.3586 C   0  0  0  0  0  0  0  0  0  0  0  0
   -1.0517   -0.2921    1.0362 C   0  0  0  0  0  0  0  0  0  0  0  0
   -1.0363    0.4855   -0.2829 C   0  0  0  0  0  0  0  0  0  0  0  0
   -0.7574   -0.8831   -0.9142 C   0  0  0  0  0  0  0  0  0  0  0  0
    0.3116    1.1156   -0.2813 C   0  0  0  0  0  0  0  0  0  0  0  0
    0.3373    2.1392    0.6614 O   0  0  0  0  0  0  0  0  0  0  0  0
    2.3430   -1.4028   -0.5268 H   0  0  0  0  0  0  0  0  0  0  0  0
    1.6614    0.1349    1.1436 H   0  0  0  0  0  0  0  0  0  0  0  0
    0.2454   -2.0792    0.6867 H   0  0  0  0  0  0  0  0  0  0  0  0
   -2.0003   -0.8686    1.1305 H   0  0  0  0  0  0  0  0  0  0  0  0
   -0.7489    0.3132    1.8860 H   0  0  0  0  0  0  0  0  0  0  0  0
   -1.9055    1.0045   -0.5724 H   0  0  0  0  0  0  0  0  0  0  0  0
   -0.1945   -0.8627   -1.8427 H   0  0  0  0  0  0  0  0  0  0  0  0
   -1.6422   -1.5707   -0.8782 H   0  0  0  0  0  0  0  0  0  0  0  0
    0.6387    1.4608   -1.2687 H   0  0  0  0  0  0  0  0  0  0  0  0
    0.6031    3.0160    0.2730 H   0  0  0  0  0  0  0  0  0  0  0  0
  1  2  1  0
  2  3  1  0
  3  4  1  0
  4  5  1  0
  5  6  1  0
  5  7  1  0
  7  8  1  0
  7  2  1  0
  6  3  1  0
  1  9  1  0
  2 10  1  0
  3 11  1  0
  4 12  1  0
  4 13  1  0
  5 14  1  0
  6 15  1  0
  6 16  1  0
  7 17  1  0
  8 18  1  0
M  END
