
     RDKit          3D

 19 20  0  0  0  0  0  0  0  0999 V2000
    2.1108   -0.6305    0.8870 O   0  0  0  0  0  0  0  0  0  0  0  0
    1.1951   -0.0175   -0.0003 C   0  0  0  0  0  0  0  0  0  0  0  0
    0.9074    1.3747    0.3787 C   0  0  0  0  0  0  0  0  0  0  0  0
   -0.3744    1.7548    0.5271 O   0  0  0  0  0  0  0  0  0  0  0  0
   -1.3531    0.8904    0.1435 C   0  0  0  0  0  0  0  0  0  0  0  0
   -1.0901   -0.4412    0.8613 C   0  0  0  0  0  0  0  0  0  0  0  0
    0.0129   -0.9279   -0.0926 C   0  0  0  0  0  0  0  0  0  0  0  0
   -0.6937   -0.5841   -1.4110 C   0  0  0  0  0  0  0  0  0  0  0  0
   -1.3267    0.6108   -1.1897 O   0  0  0  0  0  0  0  0  0  0  0  0
    2.2675   -1.5316    0.5069 H   0  0  0  0  0  0  0  0  0  0  0  0
    1.7166   -0.0695   -1.0020 H   0  0  0  0  0  0  0  0  0  0  0  0
    1.4490    1.5917    1.3477 H   0  0  0  0  0  0  0  0  0  0  0  0
    1.4137    2.0681   -0.3568 H   0  0  0  0  0  0  0  0  0  0  0  0
   -2.3316    1.2546    0.5195 H   0  0  0  0  0  0  0  0  0  0  0  0
   -1.9636   -1.0788    0.7354 H   0  0  0  0  0  0  0  0  0  0  0  0
   -0.7247   -0.3035    1.8724 H   0  0  0  0  0  0  0  0  0  0  0  0
    0.2297   -1.9788    0.0136 H   0  0  0  0  0  0  0  0  0  0  0  0
   -1.4799   -1.3848   -1.5214 H   0  0  0  0  0  0  0  0  0  0  0  0
    0.0348   -0.5967   -2.2192 H   0  0  0  0  0  0  0  0  0  0  0  0
  1  2  1  0
  2  3  1  0
  3  4  1  0
  4  5  1  0
  5  6  1  0
  6  7  1  0
  7  8  1  0
  8  9  1  0
  7  2  1  0
  9  5  1  0
  1 10  1  0
  2 11  1  0
  3 12  1  0
  3 13  1  0
  5 14  1  0
  6 15  1  0
  6 16  1  0
  7 17  1  0
  8 18  1  0
  8 19  1  0
M  END
