
     RDKit          3D

 19 21  0  0  0  0  0  0  0  0999 V2000
    2.3009   -0.7736   -0.1465 O   0  0  0  0  0  0  0  0  0  0  0  0
    1.3087   -0.0850    0.4676 C   0  0  0  0  0  0  0  0  0  0  0  0
    0.7630    1.0812   -0.3325 C   0  0  0  0  0  0  0  0  0  0  0  0
   -0.7420    1.0639   -0.1208 C   0  0  0  0  0  0  0  0  0  0  0  0
   -0.8254    0.2951    1.2088 C   0  0  0  0  0  0  0  0  0  0  0  0
    0.0521   -0.8794    0.7281 C   0  0  0  0  0  0  0  0  0  0  0  0
   -0.6661   -1.2438   -0.5432 C   0  0  0  0  0  0  0  0  0  0  0  0
   -2.0442   -1.0314   -0.5360 O   0  0  0  0  0  0  0  0  0  0  0  0
   -1.3108    0.0503   -1.0568 C   0  0  0  0  0  0  0  0  0  0  0  0
    2.1132   -1.1234   -1.0305 H   0  0  0  0  0  0  0  0  0  0  0  0
    1.6667    0.2867    1.4419 H   0  0  0  0  0  0  0  0  0  0  0  0
    1.2182    2.0471   -0.0403 H   0  0  0  0  0  0  0  0  0  0  0  0
    1.0091    0.8480   -1.4075 H   0  0  0  0  0  0  0  0  0  0  0  0
   -1.2084    2.0239   -0.0934 H   0  0  0  0  0  0  0  0  0  0  0  0
   -0.3436    0.8336    2.0259 H   0  0  0  0  0  0  0  0  0  0  0  0
   -1.8500   -0.0298    1.3869 H   0  0  0  0  0  0  0  0  0  0  0  0
    0.1412   -1.6628    1.4589 H   0  0  0  0  0  0  0  0  0  0  0  0
   -0.2113   -1.9219   -1.2764 H   0  0  0  0  0  0  0  0  0  0  0  0
   -1.3713    0.2213   -2.1342 H   0  0  0  0  0  0  0  0  0  0  0  0
  1  2  1  0
  2  3  1  0
  3  4  1  0
  4  5  1  0
  5  6  1  0
  6  7  1  0
  7  8  1  0
  8  9  1  0
  6  2  1  0
  9  7  1  0
  9  4  1  0
  1 10  1  0
  2 11  1  0
  3 12  1  0
  3 13  1  0
  4 14  1  0
  5 15  1  0
  5 16  1  0
  6 17  1  0
  7 18  1  0
  9 19  1  0
M  END
