
     RDKit          3D

 17 18  0  0  0  0  0  0  0  0999 V2000
   -1.8978    1.7886   -2.7608 O   0  0  0  0  0  0  0  0  0  0  0  0
   -1.1738    1.5931   -1.5905 C   0  0  0  0  0  0  0  0  0  0  0  0
   -1.9025    1.6919   -0.3058 C   0  0  0  0  0  0  0  0  0  0  0  0
   -1.3149    0.3431   -0.8402 C   0  0  0  0  0  0  0  0  0  0  0  0
   -0.1830   -0.1807   -0.0470 C   0  0  0  0  0  0  0  0  0  0  0  0
    0.7325   -0.6231    0.6108 C   0  0  0  0  0  0  0  0  0  0  0  0
    1.8570   -1.1562    1.3883 C   0  0  0  0  0  0  0  0  0  0  0  0
    2.2331   -2.5141    1.2652 C   0  0  0  0  0  0  0  0  0  0  0  0
    2.9990   -1.5800    0.5339 O   0  0  0  0  0  0  0  0  0  0  0  0
   -1.2713    1.8765   -3.5045 H   0  0  0  0  0  0  0  0  0  0  0  0
   -0.1677    2.0841   -1.5980 H   0  0  0  0  0  0  0  0  0  0  0  0
   -3.0094    1.7567   -0.3669 H   0  0  0  0  0  0  0  0  0  0  0  0
   -1.4408    2.0849    0.6086 H   0  0  0  0  0  0  0  0  0  0  0  0
   -2.0587   -0.3894   -1.2058 H   0  0  0  0  0  0  0  0  0  0  0  0
    2.2068   -0.5510    2.2553 H   0  0  0  0  0  0  0  0  0  0  0  0
    2.7253   -3.0367    2.1160 H   0  0  0  0  0  0  0  0  0  0  0  0
    1.6664   -3.1879    0.5701 H   0  0  0  0  0  0  0  0  0  0  0  0
  1  2  1  0
  2  3  1  0
  3  4  1  0
  4  5  1  0
  5  6  3  0
  6  7  1  0
  7  8  1  0
  8  9  1  0
  4  2  1  0
  9  7  1  0
  1 10  1  0
  2 11  1  0
  3 12  1  0
  3 13  1  0
  4 14  1  0
  7 15  1  0
  8 16  1  0
  8 17  1  0
M  END
