
     RDKit          3D

 19 20  0  0  0  0  0  0  0  0999 V2000
   -1.6835    1.6595    0.5862 O   0  0  0  0  0  0  0  0  0  0  0  0
   -0.6465    0.7695    0.6155 C   0  0  0  0  0  0  0  0  0  0  0  0
    0.3944    0.9675   -0.4330 C   0  0  0  0  0  0  0  0  0  0  0  0
    1.6865    0.3162    0.0749 C   0  0  0  0  0  0  0  0  0  0  0  0
    1.1714   -1.1239    0.2391 C   0  0  0  0  0  0  0  0  0  0  0  0
   -0.0432   -1.1021   -0.6294 C   0  0  0  0  0  0  0  0  0  0  0  0
    0.0776    0.0396   -1.4576 O   0  0  0  0  0  0  0  0  0  0  0  0
   -1.2027   -0.6145    0.2486 C   0  0  0  0  0  0  0  0  0  0  0  0
   -2.3288   -0.5216   -0.5294 O   0  0  0  0  0  0  0  0  0  0  0  0
   -1.3804    2.5857    0.4697 H   0  0  0  0  0  0  0  0  0  0  0  0
   -0.1442    0.6876    1.6137 H   0  0  0  0  0  0  0  0  0  0  0  0
    0.5327    1.9698   -0.7945 H   0  0  0  0  0  0  0  0  0  0  0  0
    2.4028    0.3857   -0.7649 H   0  0  0  0  0  0  0  0  0  0  0  0
    2.0290    0.7388    1.0144 H   0  0  0  0  0  0  0  0  0  0  0  0
    1.9223   -1.8629   -0.0210 H   0  0  0  0  0  0  0  0  0  0  0  0
    0.8853   -1.1852    1.3305 H   0  0  0  0  0  0  0  0  0  0  0  0
   -0.2647   -2.0033   -1.1697 H   0  0  0  0  0  0  0  0  0  0  0  0
   -1.2872   -1.2709    1.1100 H   0  0  0  0  0  0  0  0  0  0  0  0
   -2.1209   -0.4354   -1.5030 H   0  0  0  0  0  0  0  0  0  0  0  0
  1  2  1  0
  2  3  1  0
  3  4  1  0
  4  5  1  0
  5  6  1  0
  6  7  1  0
  6  8  1  0
  8  9  1  0
  8  2  1  0
  7  3  1  0
  1 10  1  0
  2 11  1  0
  3 12  1  0
  4 13  1  0
  4 14  1  0
  5 15  1  0
  5 16  1  0
  6 17  1  0
  8 18  1  0
  9 19  1  0
M  END
