
     RDKit          3D

 19 21  0  0  0  0  0  0  0  0999 V2000
   -0.6551    2.0236    0.2919 O   0  0  0  0  0  0  0  0  0  0  0  0
   -0.1451    0.8063    0.7777 C   0  0  0  0  0  0  0  0  0  0  0  0
   -1.2086   -0.2569    0.6967 C   0  0  0  0  0  0  0  0  0  0  0  0
   -2.3002   -0.1934   -0.2878 C   0  0  0  0  0  0  0  0  0  0  0  0
   -1.0159   -0.7639   -0.7458 C   0  0  0  0  0  0  0  0  0  0  0  0
   -0.0233    0.0032   -1.2983 O   0  0  0  0  0  0  0  0  0  0  0  0
    0.8057    0.2908   -0.2629 C   0  0  0  0  0  0  0  0  0  0  0  0
    2.2255    0.4328   -0.2636 C   0  0  0  0  0  0  0  0  0  0  0  0
    1.7041   -0.8940    0.1657 C   0  0  0  0  0  0  0  0  0  0  0  0
   -0.7468    1.9882   -0.6923 H   0  0  0  0  0  0  0  0  0  0  0  0
    0.2880    0.9170    1.7748 H   0  0  0  0  0  0  0  0  0  0  0  0
   -1.1630   -1.0244    1.4983 H   0  0  0  0  0  0  0  0  0  0  0  0
   -3.1317   -0.8957   -0.1426 H   0  0  0  0  0  0  0  0  0  0  0  0
   -2.6272    0.8177   -0.6075 H   0  0  0  0  0  0  0  0  0  0  0  0
   -0.9102   -1.8491   -0.8860 H   0  0  0  0  0  0  0  0  0  0  0  0
    2.7676    0.4809   -1.2306 H   0  0  0  0  0  0  0  0  0  0  0  0
    2.7116    1.0270    0.5358 H   0  0  0  0  0  0  0  0  0  0  0  0
    1.8075   -1.7278   -0.5392 H   0  0  0  0  0  0  0  0  0  0  0  0
    1.6171   -1.1824    1.2158 H   0  0  0  0  0  0  0  0  0  0  0  0
  1  2  1  0
  2  3  1  0
  3  4  1  0
  4  5  1  0
  5  6  1  0
  6  7  1  0
  7  8  1  0
  8  9  1  0
  7  2  1  0
  5  3  1  0
  9  7  1  0
  1 10  1  0
  2 11  1  0
  3 12  1  0
  4 13  1  0
  4 14  1  0
  5 15  1  0
  8 16  1  0
  8 17  1  0
  9 18  1  0
  9 19  1  0
M  END
