
     RDKit          3D

 19 20  0  0  0  0  0  0  0  0999 V2000
   -1.4044    0.5906    1.5571 O   0  0  0  0  0  0  0  0  0  0  0  0
   -1.3262    0.5862    0.1462 C   0  0  0  0  0  0  0  0  0  0  0  0
   -0.2255    1.4517   -0.3236 C   0  0  0  0  0  0  0  0  0  0  0  0
    1.0860    1.2793   -0.1612 C   0  0  0  0  0  0  0  0  0  0  0  0
    1.7664    0.1575    0.5425 C   0  0  0  0  0  0  0  0  0  0  0  0
    1.0298   -0.5601    1.4635 O   0  0  0  0  0  0  0  0  0  0  0  0
    1.2192   -1.1759    0.2489 C   0  0  0  0  0  0  0  0  0  0  0  0
    0.1540   -1.2091   -0.7940 C   0  0  0  0  0  0  0  0  0  0  0  0
   -1.2111   -0.8325   -0.2842 C   0  0  0  0  0  0  0  0  0  0  0  0
   -1.8690    1.3971    1.8919 H   0  0  0  0  0  0  0  0  0  0  0  0
   -2.2823    1.0248   -0.2383 H   0  0  0  0  0  0  0  0  0  0  0  0
   -0.4790    2.3555   -0.8774 H   0  0  0  0  0  0  0  0  0  0  0  0
    1.6936    2.0600   -0.6023 H   0  0  0  0  0  0  0  0  0  0  0  0
    2.8532    0.3145    0.6831 H   0  0  0  0  0  0  0  0  0  0  0  0
    1.9874   -2.0031    0.2137 H   0  0  0  0  0  0  0  0  0  0  0  0
    0.0675   -2.2774   -1.1513 H   0  0  0  0  0  0  0  0  0  0  0  0
    0.4098   -0.6214   -1.6807 H   0  0  0  0  0  0  0  0  0  0  0  0
   -1.9218   -1.0084   -1.1433 H   0  0  0  0  0  0  0  0  0  0  0  0
   -1.5475   -1.5294    0.5091 H   0  0  0  0  0  0  0  0  0  0  0  0
  1  2  1  0
  2  3  1  0
  3  4  2  0
  4  5  1  0
  5  6  1  0
  6  7  1  0
  7  8  1  0
  8  9  1  0
  9  2  1  0
  7  5  1  0
  1 10  1  0
  2 11  1  0
  3 12  1  0
  4 13  1  0
  5 14  1  0
  7 15  1  0
  8 16  1  0
  8 17  1  0
  9 18  1  0
  9 19  1  0
M  END
