
     RDKit          3D

 19 21  0  0  0  0  0  0  0  0999 V2000
    0.2810    1.7923   -0.9783 O   0  0  0  0  0  0  0  0  0  0  0  0
   -0.2369    1.2462    0.2175 C   0  0  0  0  0  0  0  0  0  0  0  0
   -1.5470    0.6083   -0.1152 C   0  0  0  0  0  0  0  0  0  0  0  0
   -1.1982   -0.8427   -0.3505 C   0  0  0  0  0  0  0  0  0  0  0  0
    0.1480   -1.2375   -0.8126 C   0  0  0  0  0  0  0  0  0  0  0  0
    1.3810   -0.4768   -0.5006 C   0  0  0  0  0  0  0  0  0  0  0  0
    0.6413    0.1323    0.6995 C   0  0  0  0  0  0  0  0  0  0  0  0
    1.4335    0.3613    1.7763 O   0  0  0  0  0  0  0  0  0  0  0  0
   -0.2129   -1.0908    0.6852 C   0  0  0  0  0  0  0  0  0  0  0  0
   -0.4440    2.3065   -1.4063 H   0  0  0  0  0  0  0  0  0  0  0  0
   -0.3108    2.0978    0.9190 H   0  0  0  0  0  0  0  0  0  0  0  0
   -2.1809    0.6177    0.8192 H   0  0  0  0  0  0  0  0  0  0  0  0
   -2.1038    1.0711   -0.9224 H   0  0  0  0  0  0  0  0  0  0  0  0
   -2.0274   -1.4836   -0.6256 H   0  0  0  0  0  0  0  0  0  0  0  0
    0.2808   -2.2854   -1.0894 H   0  0  0  0  0  0  0  0  0  0  0  0
    2.2746   -1.0526   -0.1994 H   0  0  0  0  0  0  0  0  0  0  0  0
    1.6739    0.3408   -1.1843 H   0  0  0  0  0  0  0  0  0  0  0  0
    2.2642   -0.1831    1.7298 H   0  0  0  0  0  0  0  0  0  0  0  0
   -0.1164   -1.9221    1.3383 H   0  0  0  0  0  0  0  0  0  0  0  0
  1  2  1  0
  2  3  1  0
  3  4  1  0
  4  5  1  0
  5  6  1  0
  6  7  1  0
  7  8  1  0
  7  9  1  0
  7  2  1  0
  9  4  1  0
  9  5  1  0
  1 10  1  0
  2 11  1  0
  3 12  1  0
  3 13  1  0
  4 14  1  0
  5 15  1  0
  6 16  1  0
  6 17  1  0
  8 18  1  0
  9 19  1  0
M  END
