
     RDKit          3D

 19 20  0  0  0  0  0  0  0  0999 V2000
    2.7867   -0.1291   -0.2008 O   0  0  0  0  0  0  0  0  0  0  0  0
    1.5667   -0.2826    0.4038 C   0  0  0  0  0  0  0  0  0  0  0  0
    0.7088   -1.3029   -0.2810 C   0  0  0  0  0  0  0  0  0  0  0  0
   -0.6171   -1.3698   -0.2563 C   0  0  0  0  0  0  0  0  0  0  0  0
   -1.6013   -0.4643    0.4473 C   0  0  0  0  0  0  0  0  0  0  0  0
   -1.5181    0.9473   -0.1551 C   0  0  0  0  0  0  0  0  0  0  0  0
   -0.1287    1.0783   -0.6577 C   0  0  0  0  0  0  0  0  0  0  0  0
    0.7704    2.0020   -0.2876 O   0  0  0  0  0  0  0  0  0  0  0  0
    0.7769    0.9618    0.5812 C   0  0  0  0  0  0  0  0  0  0  0  0
    2.8270    0.5464   -0.9023 H   0  0  0  0  0  0  0  0  0  0  0  0
    1.7627   -0.7123    1.4288 H   0  0  0  0  0  0  0  0  0  0  0  0
    1.2253   -2.0558   -0.8496 H   0  0  0  0  0  0  0  0  0  0  0  0
   -1.0539   -2.1755   -0.8103 H   0  0  0  0  0  0  0  0  0  0  0  0
   -2.5973   -0.8902    0.3723 H   0  0  0  0  0  0  0  0  0  0  0  0
   -1.2653   -0.3961    1.4979 H   0  0  0  0  0  0  0  0  0  0  0  0
   -2.2835    0.9331   -0.9856 H   0  0  0  0  0  0  0  0  0  0  0  0
   -1.7926    1.6925    0.6186 H   0  0  0  0  0  0  0  0  0  0  0  0
    0.1056    0.4449   -1.5342 H   0  0  0  0  0  0  0  0  0  0  0  0
    0.3274    1.1721    1.5705 H   0  0  0  0  0  0  0  0  0  0  0  0
  1  2  1  0
  2  3  1  0
  3  4  2  0
  4  5  1  0
  5  6  1  0
  6  7  1  0
  7  8  1  0
  8  9  1  0
  9  2  1  0
  9  7  1  0
  1 10  1  0
  2 11  1  0
  3 12  1  0
  4 13  1  0
  5 14  1  0
  5 15  1  0
  6 16  1  0
  6 17  1  0
  7 18  1  0
  9 19  1  0
M  END
