
     RDKit          3D

 17 19  0  0  0  0  0  0  0  0999 V2000
    2.2388    0.2592   -0.3233 O   0  0  0  0  0  0  0  0  0  0  0  0
    1.0532   -0.3539   -0.7665 C   0  0  0  0  0  0  0  0  0  0  0  0
    0.5350   -1.3379    0.2436 C   0  0  0  0  0  0  0  0  0  0  0  0
   -0.5720   -0.6244    0.9886 C   0  0  0  0  0  0  0  0  0  0  0  0
   -0.0360    0.5027    1.6423 O   0  0  0  0  0  0  0  0  0  0  0  0
   -0.2727    1.3182    0.5621 C   0  0  0  0  0  0  0  0  0  0  0  0
   -0.0015    0.7545   -0.8210 C   0  0  0  0  0  0  0  0  0  0  0  0
   -1.1302    0.2865   -0.0391 C   0  0  0  0  0  0  0  0  0  0  0  0
   -2.4373    0.4805   -0.2773 O   0  0  0  0  0  0  0  0  0  0  0  0
    2.4196    0.0866    0.6273 H   0  0  0  0  0  0  0  0  0  0  0  0
    1.1908   -0.7947   -1.7616 H   0  0  0  0  0  0  0  0  0  0  0  0
    1.3065   -1.7416    0.9097 H   0  0  0  0  0  0  0  0  0  0  0  0
    0.0916   -2.1865   -0.3198 H   0  0  0  0  0  0  0  0  0  0  0  0
   -1.2358   -1.2456    1.5735 H   0  0  0  0  0  0  0  0  0  0  0  0
   -0.5187    2.3676    0.6474 H   0  0  0  0  0  0  0  0  0  0  0  0
   -0.0496    1.4127   -1.6826 H   0  0  0  0  0  0  0  0  0  0  0  0
   -2.5816    0.8160   -1.2033 H   0  0  0  0  0  0  0  0  0  0  0  0
  1  2  1  0
  2  3  1  0
  3  4  1  0
  4  5  1  0
  5  6  1  0
  6  7  1  0
  7  8  1  0
  8  9  1  0
  7  2  1  0
  8  4  1  0
  8  6  1  0
  1 10  1  0
  2 11  1  0
  3 12  1  0
  3 13  1  0
  4 14  1  0
  6 15  1  0
  7 16  1  0
  9 17  1  0
M  END
