
     RDKit          3D

 21 22  0  0  0  0  0  0  0  0999 V2000
   -2.3391   -1.3250    0.8464 O   0  0  0  0  0  0  0  0  0  0  0  0
   -1.3742   -0.4140    0.5415 C   0  0  0  0  0  0  0  0  0  0  0  0
   -1.8782    0.7721   -0.2562 C   0  0  0  0  0  0  0  0  0  0  0  0
   -0.7857    1.7842   -0.2301 C   0  0  0  0  0  0  0  0  0  0  0  0
    0.4589    1.3807   -0.2057 C   0  0  0  0  0  0  0  0  0  0  0  0
    0.9054   -0.0326   -0.2013 C   0  0  0  0  0  0  0  0  0  0  0  0
    1.9231   -0.3387    0.8815 C   0  0  0  0  0  0  0  0  0  0  0  0
    2.2515   -0.4247   -0.5953 C   0  0  0  0  0  0  0  0  0  0  0  0
   -0.2406   -1.0017   -0.3024 C   0  0  0  0  0  0  0  0  0  0  0  0
   -2.4465   -1.9794    0.1243 H   0  0  0  0  0  0  0  0  0  0  0  0
   -0.9351   -0.0164    1.4744 H   0  0  0  0  0  0  0  0  0  0  0  0
   -2.8308    1.1612    0.0995 H   0  0  0  0  0  0  0  0  0  0  0  0
   -1.9381    0.4267   -1.3303 H   0  0  0  0  0  0  0  0  0  0  0  0
   -1.0636    2.8447   -0.2322 H   0  0  0  0  0  0  0  0  0  0  0  0
    1.2358    2.1380   -0.1870 H   0  0  0  0  0  0  0  0  0  0  0  0
    2.3989    0.5006    1.4257 H   0  0  0  0  0  0  0  0  0  0  0  0
    1.7921   -1.2490    1.4742 H   0  0  0  0  0  0  0  0  0  0  0  0
    2.9633    0.2969   -1.0382 H   0  0  0  0  0  0  0  0  0  0  0  0
    2.3718   -1.4841   -0.9567 H   0  0  0  0  0  0  0  0  0  0  0  0
    0.0649   -1.9939    0.0444 H   0  0  0  0  0  0  0  0  0  0  0  0
   -0.5338   -1.0454   -1.3765 H   0  0  0  0  0  0  0  0  0  0  0  0
  1  2  1  0
  2  3  1  0
  3  4  1  0
  4  5  2  0
  5  6  1  0
  6  7  1  0
  7  8  1  0
  6  9  1  0
  9  2  1  0
  8  6  1  0
  1 10  1  0
  2 11  1  0
  3 12  1  0
  3 13  1  0
  4 14  1  0
  5 15  1  0
  7 16  1  0
  7 17  1  0
  8 18  1  0
  8 19  1  0
  9 20  1  0
  9 21  1  0
M  END
