
     RDKit          3D

 19 20  0  0  0  0  0  0  0  0999 V2000
    2.0098    1.5046   -0.9736 O   0  0  0  0  0  0  0  0  0  0  0  0
    1.3449    0.8052    0.0010 C   0  0  0  0  0  0  0  0  0  0  0  0
    2.0115   -0.5575    0.2571 C   0  0  0  0  0  0  0  0  0  0  0  0
    0.8686   -1.3040    0.8797 C   0  0  0  0  0  0  0  0  0  0  0  0
   -0.2826   -0.7735    0.5226 C   0  0  0  0  0  0  0  0  0  0  0  0
   -1.7565   -0.8377    0.6367 C   0  0  0  0  0  0  0  0  0  0  0  0
   -2.1725    0.5418    0.1358 C   0  0  0  0  0  0  0  0  0  0  0  0
   -1.0180    1.3067    0.0256 O   0  0  0  0  0  0  0  0  0  0  0  0
   -0.0478    0.3967   -0.3857 C   0  0  0  0  0  0  0  0  0  0  0  0
    1.4401    2.2286   -1.3099 H   0  0  0  0  0  0  0  0  0  0  0  0
    1.3444    1.3360    0.9736 H   0  0  0  0  0  0  0  0  0  0  0  0
    2.8273   -0.4564    1.0055 H   0  0  0  0  0  0  0  0  0  0  0  0
    2.3194   -1.0155   -0.6849 H   0  0  0  0  0  0  0  0  0  0  0  0
    1.0155   -2.1654    1.5343 H   0  0  0  0  0  0  0  0  0  0  0  0
   -2.1183   -1.5897   -0.0929 H   0  0  0  0  0  0  0  0  0  0  0  0
   -2.1069   -1.0094    1.6606 H   0  0  0  0  0  0  0  0  0  0  0  0
   -2.6227    0.4818   -0.8875 H   0  0  0  0  0  0  0  0  0  0  0  0
   -2.8909    0.9531    0.8723 H   0  0  0  0  0  0  0  0  0  0  0  0
   -0.1651    0.1545   -1.4420 H   0  0  0  0  0  0  0  0  0  0  0  0
  1  2  1  0
  2  3  1  0
  3  4  1  0
  4  5  2  0
  5  6  1  0
  6  7  1  0
  7  8  1  0
  8  9  1  0
  9  2  1  0
  9  5  1  0
  1 10  1  0
  2 11  1  0
  3 12  1  0
  3 13  1  0
  4 14  1  0
  6 15  1  0
  6 16  1  0
  7 17  1  0
  7 18  1  0
  9 19  1  0
M  END
