
     RDKit          3D

 20 21  0  0  0  0  0  0  0  0999 V2000
   -1.7960   -0.6953   -1.1281 O   0  0  0  0  0  0  0  0  0  0  0  0
   -1.3264   -0.6175    0.2016 C   0  0  0  0  0  0  0  0  0  0  0  0
   -1.1930    0.8333    0.5314 C   0  0  0  0  0  0  0  0  0  0  0  0
   -0.0309    1.3815   -0.2655 C   0  0  0  0  0  0  0  0  0  0  0  0
    1.2098    0.7328    0.2518 C   0  0  0  0  0  0  0  0  0  0  0  0
    1.9101   -0.1788   -0.7180 C   0  0  0  0  0  0  0  0  0  0  0  0
    1.1700   -0.6860    0.5102 C   0  0  0  0  0  0  0  0  0  0  0  0
   -0.0952   -1.4219    0.3721 C   0  0  0  0  0  0  0  0  0  0  0  0
   -2.2778    0.1462   -1.3804 H   0  0  0  0  0  0  0  0  0  0  0  0
   -2.1835   -1.0126    0.8226 H   0  0  0  0  0  0  0  0  0  0  0  0
   -0.9332    0.9687    1.6084 H   0  0  0  0  0  0  0  0  0  0  0  0
   -2.1378    1.3315    0.2505 H   0  0  0  0  0  0  0  0  0  0  0  0
   -0.2366    1.0913   -1.3372 H   0  0  0  0  0  0  0  0  0  0  0  0
    0.0389    2.4691   -0.2576 H   0  0  0  0  0  0  0  0  0  0  0  0
    1.8278    1.4073    0.9004 H   0  0  0  0  0  0  0  0  0  0  0  0
    2.9969   -0.0986   -0.7149 H   0  0  0  0  0  0  0  0  0  0  0  0
    1.4655   -0.3260   -1.7162 H   0  0  0  0  0  0  0  0  0  0  0  0
    1.8929   -1.0788    1.2845 H   0  0  0  0  0  0  0  0  0  0  0  0
   -0.2508   -2.0900    1.2716 H   0  0  0  0  0  0  0  0  0  0  0  0
   -0.0505   -2.1562   -0.4872 H   0  0  0  0  0  0  0  0  0  0  0  0
  1  2  1  0
  2  3  1  0
  3  4  1  0
  4  5  1  0
  5  6  1  0
  6  7  1  0
  7  8  1  0
  8  2  1  0
  7  5  1  0
  1  9  1  0
  2 10  1  0
  3 11  1  0
  3 12  1  0
  4 13  1  0
  4 14  1  0
  5 15  1  0
  6 16  1  0
  6 17  1  0
  7 18  1  0
  8 19  1  0
  8 20  1  0
M  END
