
     RDKit          3D

 21 22  0  0  0  0  0  0  0  0999 V2000
   -0.9739    1.2242   -1.4571 O   0  0  0  0  0  0  0  0  0  0  0  0
   -1.0456    0.0819   -0.7063 C   0  0  0  0  0  0  0  0  0  0  0  0
   -2.3547   -0.0848    0.0315 C   0  0  0  0  0  0  0  0  0  0  0  0
   -2.0716   -0.3745    1.3393 O   0  0  0  0  0  0  0  0  0  0  0  0
   -0.7791   -0.8876    1.3961 C   0  0  0  0  0  0  0  0  0  0  0  0
   -0.0500    0.0572    0.4456 C   0  0  0  0  0  0  0  0  0  0  0  0
    1.2933   -0.4511    0.0432 C   0  0  0  0  0  0  0  0  0  0  0  0
    2.0242    0.2723   -1.0006 C   0  0  0  0  0  0  0  0  0  0  0  0
    2.4572    0.4512    0.4539 C   0  0  0  0  0  0  0  0  0  0  0  0
   -1.8125    1.5445   -1.8304 H   0  0  0  0  0  0  0  0  0  0  0  0
   -0.9300   -0.8314   -1.3420 H   0  0  0  0  0  0  0  0  0  0  0  0
   -2.9887   -0.8823   -0.3777 H   0  0  0  0  0  0  0  0  0  0  0  0
   -2.9412    0.8705    0.0122 H   0  0  0  0  0  0  0  0  0  0  0  0
   -0.3196   -0.8113    2.3758 H   0  0  0  0  0  0  0  0  0  0  0  0
   -0.7839   -1.8751    0.9332 H   0  0  0  0  0  0  0  0  0  0  0  0
   -0.0173    1.0927    0.8479 H   0  0  0  0  0  0  0  0  0  0  0  0
    1.4609   -1.5608    0.1679 H   0  0  0  0  0  0  0  0  0  0  0  0
    1.5052    1.1403   -1.4618 H   0  0  0  0  0  0  0  0  0  0  0  0
    2.7081   -0.3414   -1.6328 H   0  0  0  0  0  0  0  0  0  0  0  0
    3.3909   -0.0263    0.7925 H   0  0  0  0  0  0  0  0  0  0  0  0
    2.2282    1.3919    0.9695 H   0  0  0  0  0  0  0  0  0  0  0  0
  1  2  1  0
  2  3  1  0
  3  4  1  0
  4  5  1  0
  5  6  1  0
  6  7  1  0
  7  8  1  0
  8  9  1  0
  6  2  1  0
  9  7  1  0
  1 10  1  0
  2 11  1  0
  3 12  1  0
  3 13  1  0
  5 14  1  0
  5 15  1  0
  6 16  1  0
  7 17  1  0
  8 18  1  0
  8 19  1  0
  9 20  1  0
  9 21  1  0
M  END
