
     RDKit          3D

 19 20  0  0  0  0  0  0  0  0999 V2000
    1.7111   -0.5466    1.1576 O   0  0  0  0  0  0  0  0  0  0  0  0
    1.8110   -0.1888   -0.1809 C   0  0  0  0  0  0  0  0  0  0  0  0
    0.6443   -0.5468   -1.0999 C   0  0  0  0  0  0  0  0  0  0  0  0
   -0.3049   -1.4885   -0.5087 C   0  0  0  0  0  0  0  0  0  0  0  0
   -1.4513   -1.3184    0.1215 C   0  0  0  0  0  0  0  0  0  0  0  0
   -2.0940   -0.0684    0.4012 C   0  0  0  0  0  0  0  0  0  0  0  0
   -1.4878    1.1195    0.4893 C   0  0  0  0  0  0  0  0  0  0  0  0
   -0.0754    1.4424    0.3314 C   0  0  0  0  0  0  0  0  0  0  0  0
    0.7168    0.8014   -0.6997 C   0  0  0  0  0  0  0  0  0  0  0  0
    2.5972   -0.7434    1.5247 H   0  0  0  0  0  0  0  0  0  0  0  0
    2.8137   -0.1220   -0.5916 H   0  0  0  0  0  0  0  0  0  0  0  0
    0.8980   -0.8275   -2.1657 H   0  0  0  0  0  0  0  0  0  0  0  0
   -0.0142   -2.5336   -0.6042 H   0  0  0  0  0  0  0  0  0  0  0  0
   -1.9433   -2.2048    0.4507 H   0  0  0  0  0  0  0  0  0  0  0  0
   -3.1709   -0.0943    0.5545 H   0  0  0  0  0  0  0  0  0  0  0  0
   -2.2142    1.9103    0.7129 H   0  0  0  0  0  0  0  0  0  0  0  0
    0.4341    1.3202    1.3389 H   0  0  0  0  0  0  0  0  0  0  0  0
   -0.0454    2.5741    0.2257 H   0  0  0  0  0  0  0  0  0  0  0  0
    1.1752    1.5150   -1.4576 H   0  0  0  0  0  0  0  0  0  0  0  0
  1  2  1  0
  2  3  1  0
  3  4  1  0
  4  5  2  0
  5  6  1  0
  6  7  2  0
  7  8  1  0
  8  9  1  0
  9  2  1  0
  9  3  1  0
  1 10  1  0
  2 11  1  0
  3 12  1  0
  4 13  1  0
  5 14  1  0
  6 15  1  0
  7 16  1  0
  8 17  1  0
  8 18  1  0
  9 19  1  0
M  END
