
     RDKit          3D

 18 19  0  0  0  0  0  0  0  0999 V2000
    2.6103   -0.3196    0.7616 O   0  0  0  0  0  0  0  0  0  0  0  0
    1.6215    0.3108   -0.0250 C   0  0  0  0  0  0  0  0  0  0  0  0
    0.4092    0.7142    0.5575 C   0  0  0  0  0  0  0  0  0  0  0  0
   -0.9095    1.1304    0.0401 C   0  0  0  0  0  0  0  0  0  0  0  0
   -1.6437   -0.2268    0.0170 C   0  0  0  0  0  0  0  0  0  0  0  0
   -0.5095   -1.2674    0.1566 C   0  0  0  0  0  0  0  0  0  0  0  0
    0.5597   -0.4683   -0.4892 C   0  0  0  0  0  0  0  0  0  0  0  0
    0.1102   -0.1511   -1.8061 O   0  0  0  0  0  0  0  0  0  0  0  0
    2.4700   -0.1853    1.7181 H   0  0  0  0  0  0  0  0  0  0  0  0
    2.1361    1.0354   -0.7221 H   0  0  0  0  0  0  0  0  0  0  0  0
    0.2807    0.3908    1.6377 H   0  0  0  0  0  0  0  0  0  0  0  0
   -1.4706    1.7694    0.7465 H   0  0  0  0  0  0  0  0  0  0  0  0
   -0.8850    1.5907   -0.9472 H   0  0  0  0  0  0  0  0  0  0  0  0
   -2.1055   -0.3551   -0.9821 H   0  0  0  0  0  0  0  0  0  0  0  0
   -2.3713   -0.3107    0.8176 H   0  0  0  0  0  0  0  0  0  0  0  0
   -0.7995   -2.1850   -0.3587 H   0  0  0  0  0  0  0  0  0  0  0  0
   -0.3891   -1.3928    1.2606 H   0  0  0  0  0  0  0  0  0  0  0  0
    0.8859   -0.0796   -2.3828 H   0  0  0  0  0  0  0  0  0  0  0  0
  1  2  1  0
  2  3  1  0
  3  4  1  0
  4  5  1  0
  5  6  1  0
  6  7  1  0
  7  8  1  0
  7  2  1  0
  7  3  1  0
  1  9  1  0
  2 10  1  0
  3 11  1  0
  4 12  1  0
  4 13  1  0
  5 14  1  0
  5 15  1  0
  6 16  1  0
  6 17  1  0
  8 18  1  0
M  END
