
     RDKit          3D

 18 19  0  0  0  0  0  0  0  0999 V2000
   -1.7972   -1.0633   -0.3459 O   0  0  0  0  0  0  0  0  0  0  0  0
   -0.5257   -1.0641    0.1420 C   0  0  0  0  0  0  0  0  0  0  0  0
    0.4710   -0.3729   -0.8080 C   0  0  0  0  0  0  0  0  0  0  0  0
   -0.0787    1.0112   -0.8729 C   0  0  0  0  0  0  0  0  0  0  0  0
   -0.6819    1.2249    0.5229 C   0  0  0  0  0  0  0  0  0  0  0  0
   -0.3199   -0.0317    1.2618 C   0  0  0  0  0  0  0  0  0  0  0  0
    1.0605   -0.1150    1.4219 O   0  0  0  0  0  0  0  0  0  0  0  0
    1.6258   -0.3376    0.1808 C   0  0  0  0  0  0  0  0  0  0  0  0
   -1.7949   -1.5450   -1.2041 H   0  0  0  0  0  0  0  0  0  0  0  0
   -0.1217   -2.0226    0.4566 H   0  0  0  0  0  0  0  0  0  0  0  0
    0.6477   -0.8931   -1.7145 H   0  0  0  0  0  0  0  0  0  0  0  0
    0.7906    1.7168   -0.9652 H   0  0  0  0  0  0  0  0  0  0  0  0
   -0.8139    1.1817   -1.6607 H   0  0  0  0  0  0  0  0  0  0  0  0
   -0.3027    2.1428    0.9850 H   0  0  0  0  0  0  0  0  0  0  0  0
   -1.7688    1.3178    0.4076 H   0  0  0  0  0  0  0  0  0  0  0  0
   -0.8904   -0.2435    2.1468 H   0  0  0  0  0  0  0  0  0  0  0  0
    2.3740    0.4319   -0.0679 H   0  0  0  0  0  0  0  0  0  0  0  0
    2.1263   -1.3383    0.1136 H   0  0  0  0  0  0  0  0  0  0  0  0
  1  2  1  0
  2  3  1  0
  3  4  1  0
  4  5  1  0
  5  6  1  0
  6  7  1  0
  7  8  1  0
  6  2  1  0
  8  3  1  0
  1  9  1  0
  2 10  1  0
  3 11  1  0
  4 12  1  0
  4 13  1  0
  5 14  1  0
  5 15  1  0
  6 16  1  0
  8 17  1  0
  8 18  1  0
M  END
