
     RDKit          3D

 21 22  0  0  0  0  0  0  0  0999 V2000
    3.3471   -0.2609   -0.2091 O   0  0  0  0  0  0  0  0  0  0  0  0
    2.0729   -0.7123   -0.0935 C   0  0  0  0  0  0  0  0  0  0  0  0
    1.5373   -0.6505    1.3429 C   0  0  0  0  0  0  0  0  0  0  0  0
    0.1716   -0.6634    1.2350 O   0  0  0  0  0  0  0  0  0  0  0  0
   -0.1910   -0.3042   -0.0364 C   0  0  0  0  0  0  0  0  0  0  0  0
   -1.3001    0.7003    0.0344 C   0  0  0  0  0  0  0  0  0  0  0  0
   -2.5365    0.1704    0.7388 C   0  0  0  0  0  0  0  0  0  0  0  0
   -2.5478    0.5764   -0.7208 C   0  0  0  0  0  0  0  0  0  0  0  0
    1.0406    0.2254   -0.7377 C   0  0  0  0  0  0  0  0  0  0  0  0
    3.4251    0.6887   -0.3930 H   0  0  0  0  0  0  0  0  0  0  0  0
    1.8671   -1.7149   -0.4652 H   0  0  0  0  0  0  0  0  0  0  0  0
    1.9250    0.3268    1.7435 H   0  0  0  0  0  0  0  0  0  0  0  0
    1.8914   -1.4960    1.9371 H   0  0  0  0  0  0  0  0  0  0  0  0
   -0.5251   -1.2413   -0.5658 H   0  0  0  0  0  0  0  0  0  0  0  0
   -0.9547    1.7219    0.3364 H   0  0  0  0  0  0  0  0  0  0  0  0
   -2.9685    0.8281    1.4998 H   0  0  0  0  0  0  0  0  0  0  0  0
   -2.6418   -0.9282    0.8762 H   0  0  0  0  0  0  0  0  0  0  0  0
   -2.6942   -0.1999   -1.5007 H   0  0  0  0  0  0  0  0  0  0  0  0
   -3.1157    1.5370   -0.8802 H   0  0  0  0  0  0  0  0  0  0  0  0
    1.0105    0.1300   -1.8198 H   0  0  0  0  0  0  0  0  0  0  0  0
    1.1868    1.2664   -0.3874 H   0  0  0  0  0  0  0  0  0  0  0  0
  1  2  1  0
  2  3  1  0
  3  4  1  0
  4  5  1  0
  5  6  1  0
  6  7  1  0
  7  8  1  0
  5  9  1  0
  9  2  1  0
  8  6  1  0
  1 10  1  0
  2 11  1  0
  3 12  1  0
  3 13  1  0
  5 14  1  0
  6 15  1  0
  7 16  1  0
  7 17  1  0
  8 18  1  0
  8 19  1  0
  9 20  1  0
  9 21  1  0
M  END
