
     RDKit          3D

 16 17  0  0  0  0  0  0  0  0999 V2000
    0.0055   -2.1480    0.8750 O   0  0  0  0  0  0  0  0  0  0  0  0
   -0.5018   -1.0217    0.2280 C   0  0  0  0  0  0  0  0  0  0  0  0
   -0.8297    0.0035    1.3296 C   0  0  0  0  0  0  0  0  0  0  0  0
   -0.5886    1.2579    0.5727 C   0  0  0  0  0  0  0  0  0  0  0  0
    0.2082    1.0872   -0.4814 C   0  0  0  0  0  0  0  0  0  0  0  0
    1.0730    1.0613   -1.6791 C   0  0  0  0  0  0  0  0  0  0  0  0
    0.5346   -0.2409   -1.8850 O   0  0  0  0  0  0  0  0  0  0  0  0
    0.6349   -0.3814   -0.5246 C   0  0  0  0  0  0  0  0  0  0  0  0
   -0.6803   -2.5882    1.4487 H   0  0  0  0  0  0  0  0  0  0  0  0
   -1.3687   -1.2851   -0.3670 H   0  0  0  0  0  0  0  0  0  0  0  0
   -0.1526   -0.1134    2.1901 H   0  0  0  0  0  0  0  0  0  0  0  0
   -1.8918   -0.1398    1.5633 H   0  0  0  0  0  0  0  0  0  0  0  0
   -0.9834    2.2615    0.7863 H   0  0  0  0  0  0  0  0  0  0  0  0
    2.1378    1.0311   -1.4506 H   0  0  0  0  0  0  0  0  0  0  0  0
    0.7667    1.7755   -2.4778 H   0  0  0  0  0  0  0  0  0  0  0  0
    1.6360   -0.5595   -0.1281 H   0  0  0  0  0  0  0  0  0  0  0  0
  1  2  1  0
  2  3  1  0
  3  4  1  0
  4  5  2  0
  5  6  1  0
  6  7  1  0
  7  8  1  0
  8  2  1  0
  8  5  1  0
  1  9  1  0
  2 10  1  0
  3 11  1  0
  3 12  1  0
  4 13  1  0
  6 14  1  0
  6 15  1  0
  8 16  1  0
M  END
