
     RDKit          3D

 21 22  0  0  0  0  0  0  0  0999 V2000
   -1.9011   -1.7945    0.0614 O   0  0  0  0  0  0  0  0  0  0  0  0
   -1.1085   -0.7431    0.4524 C   0  0  0  0  0  0  0  0  0  0  0  0
   -1.2677    0.4080   -0.4961 C   0  0  0  0  0  0  0  0  0  0  0  0
   -0.3242    1.5361   -0.2597 C   0  0  0  0  0  0  0  0  0  0  0  0
    1.0727    1.0741    0.0582 C   0  0  0  0  0  0  0  0  0  0  0  0
    1.5139    0.2076   -1.0908 C   0  0  0  0  0  0  0  0  0  0  0  0
    0.8703   -0.9492   -0.9336 C   0  0  0  0  0  0  0  0  0  0  0  0
    0.3793   -1.1159    0.4434 C   0  0  0  0  0  0  0  0  0  0  0  0
    1.0679    0.0399    1.1843 C   0  0  0  0  0  0  0  0  0  0  0  0
   -2.3000   -2.2801    0.8370 H   0  0  0  0  0  0  0  0  0  0  0  0
   -1.3847   -0.3710    1.4707 H   0  0  0  0  0  0  0  0  0  0  0  0
   -2.3191    0.7624   -0.4156 H   0  0  0  0  0  0  0  0  0  0  0  0
   -1.1763    0.0228   -1.5529 H   0  0  0  0  0  0  0  0  0  0  0  0
   -0.6979    2.2769    0.4841 H   0  0  0  0  0  0  0  0  0  0  0  0
   -0.2487    2.1116   -1.2252 H   0  0  0  0  0  0  0  0  0  0  0  0
    1.7377    1.9078    0.2448 H   0  0  0  0  0  0  0  0  0  0  0  0
    2.2113    0.4734   -1.8810 H   0  0  0  0  0  0  0  0  0  0  0  0
    0.7369   -1.6724   -1.7499 H   0  0  0  0  0  0  0  0  0  0  0  0
    0.5745   -2.0802    0.8991 H   0  0  0  0  0  0  0  0  0  0  0  0
    2.1030   -0.1916    1.4302 H   0  0  0  0  0  0  0  0  0  0  0  0
    0.4607    0.3774    2.0392 H   0  0  0  0  0  0  0  0  0  0  0  0
  1  2  1  0
  2  3  1  0
  3  4  1  0
  4  5  1  0
  5  6  1  0
  6  7  2  0
  7  8  1  0
  8  9  1  0
  8  2  1  0
  9  5  1  0
  1 10  1  0
  2 11  1  0
  3 12  1  0
  3 13  1  0
  4 14  1  0
  4 15  1  0
  5 16  1  0
  6 17  1  0
  7 18  1  0
  8 19  1  0
  9 20  1  0
  9 21  1  0
M  END
