
     RDKit          3D

 16 18  0  0  0  0  0  0  0  0999 V2000
    2.7260    0.1645    0.1939 O   0  0  0  0  0  0  0  0  0  0  0  0
    1.3556    0.2994    0.4386 C   0  0  0  0  0  0  0  0  0  0  0  0
    0.4414    0.3348   -0.7297 C   0  0  0  0  0  0  0  0  0  0  0  0
   -0.8689    1.0395   -0.5325 C   0  0  0  0  0  0  0  0  0  0  0  0
   -1.7128    0.0283    0.1930 C   0  0  0  0  0  0  0  0  0  0  0  0
   -1.4179   -0.0590    1.5617 O   0  0  0  0  0  0  0  0  0  0  0  0
   -0.8650   -1.0215    0.7461 C   0  0  0  0  0  0  0  0  0  0  0  0
    0.4871   -0.8504    0.1383 C   0  0  0  0  0  0  0  0  0  0  0  0
    2.9196   -0.3523   -0.6258 H   0  0  0  0  0  0  0  0  0  0  0  0
    1.1536    0.9857    1.2992 H   0  0  0  0  0  0  0  0  0  0  0  0
    0.7849    0.2175   -1.7622 H   0  0  0  0  0  0  0  0  0  0  0  0
   -0.6639    1.9401    0.0950 H   0  0  0  0  0  0  0  0  0  0  0  0
   -1.3145    1.3052   -1.5169 H   0  0  0  0  0  0  0  0  0  0  0  0
   -2.7304   -0.1985   -0.1579 H   0  0  0  0  0  0  0  0  0  0  0  0
   -1.2771   -2.0390    0.8473 H   0  0  0  0  0  0  0  0  0  0  0  0
    0.9823   -1.7942   -0.1882 H   0  0  0  0  0  0  0  0  0  0  0  0
  1  2  1  0
  2  3  1  0
  3  4  1  0
  4  5  1  0
  5  6  1  0
  6  7  1  0
  7  8  1  0
  8  2  1  0
  8  3  1  0
  7  5  1  0
  1  9  1  0
  2 10  1  0
  3 11  1  0
  4 12  1  0
  4 13  1  0
  5 14  1  0
  7 15  1  0
  8 16  1  0
M  END
