
     RDKit          3D

 18 19  0  0  0  0  0  0  0  0999 V2000
   -2.5727   -0.1455   -0.3354 O   0  0  0  0  0  0  0  0  0  0  0  0
   -1.2354    0.0812   -0.6965 C   0  0  0  0  0  0  0  0  0  0  0  0
   -0.7148    1.2730    0.0689 C   0  0  0  0  0  0  0  0  0  0  0  0
   -0.1414    0.3311    1.0805 C   0  0  0  0  0  0  0  0  0  0  0  0
    1.2138    0.5142    1.2613 O   0  0  0  0  0  0  0  0  0  0  0  0
    1.8571    0.2334    0.0814 C   0  0  0  0  0  0  0  0  0  0  0  0
    1.0869   -0.9377   -0.4580 C   0  0  0  0  0  0  0  0  0  0  0  0
   -0.3098   -0.7982    0.0827 C   0  0  0  0  0  0  0  0  0  0  0  0
   -2.7015   -0.9912    0.1293 H   0  0  0  0  0  0  0  0  0  0  0  0
   -1.1195    0.1046   -1.7829 H   0  0  0  0  0  0  0  0  0  0  0  0
    0.0406    1.8298   -0.4984 H   0  0  0  0  0  0  0  0  0  0  0  0
   -1.5087    1.9563    0.4115 H   0  0  0  0  0  0  0  0  0  0  0  0
   -0.7091    0.1520    1.9913 H   0  0  0  0  0  0  0  0  0  0  0  0
    1.9341    1.0775   -0.6181 H   0  0  0  0  0  0  0  0  0  0  0  0
    2.9197   -0.0365    0.3447 H   0  0  0  0  0  0  0  0  0  0  0  0
    1.1434   -1.0558   -1.5405 H   0  0  0  0  0  0  0  0  0  0  0  0
    1.5439   -1.8570   -0.0021 H   0  0  0  0  0  0  0  0  0  0  0  0
   -0.7267   -1.7310    0.4806 H   0  0  0  0  0  0  0  0  0  0  0  0
  1  2  1  0
  2  3  1  0
  3  4  1  0
  4  5  1  0
  5  6  1  0
  6  7  1  0
  7  8  1  0
  8  2  1  0
  8  4  1  0
  1  9  1  0
  2 10  1  0
  3 11  1  0
  3 12  1  0
  4 13  1  0
  6 14  1  0
  6 15  1  0
  7 16  1  0
  7 17  1  0
  8 18  1  0
M  END
