
     RDKit          3D

 19 20  0  0  0  0  0  0  0  0999 V2000
    2.4193   -0.4466   -0.1645 O   0  0  0  0  0  0  0  0  0  0  0  0
    1.1908    0.2236   -0.3741 C   0  0  0  0  0  0  0  0  0  0  0  0
    0.8042    1.0345    0.7865 C   0  0  0  0  0  0  0  0  0  0  0  0
   -0.4412    0.9330    1.2768 O   0  0  0  0  0  0  0  0  0  0  0  0
   -1.2999    0.0584    0.6999 C   0  0  0  0  0  0  0  0  0  0  0  0
   -1.6609    0.4019   -0.7293 C   0  0  0  0  0  0  0  0  0  0  0  0
   -0.7710   -0.2341   -1.5547 O   0  0  0  0  0  0  0  0  0  0  0  0
    0.2093   -0.8294   -0.7943 C   0  0  0  0  0  0  0  0  0  0  0  0
   -0.5390   -1.2570    0.4758 C   0  0  0  0  0  0  0  0  0  0  0  0
    3.1842    0.1424   -0.2224 H   0  0  0  0  0  0  0  0  0  0  0  0
    1.3831    0.8586   -1.2894 H   0  0  0  0  0  0  0  0  0  0  0  0
    1.5351    0.8244    1.6228 H   0  0  0  0  0  0  0  0  0  0  0  0
    1.0026    2.1200    0.5399 H   0  0  0  0  0  0  0  0  0  0  0  0
   -2.1961   -0.0805    1.2981 H   0  0  0  0  0  0  0  0  0  0  0  0
   -1.7571    1.4790   -0.9106 H   0  0  0  0  0  0  0  0  0  0  0  0
   -2.6811   -0.0336   -0.9418 H   0  0  0  0  0  0  0  0  0  0  0  0
    0.6789   -1.6738   -1.3021 H   0  0  0  0  0  0  0  0  0  0  0  0
   -1.2047   -2.0914    0.2741 H   0  0  0  0  0  0  0  0  0  0  0  0
    0.1434   -1.4296    1.3092 H   0  0  0  0  0  0  0  0  0  0  0  0
  1  2  1  0
  2  3  1  0
  3  4  1  0
  4  5  1  0
  5  6  1  0
  6  7  1  0
  7  8  1  0
  8  9  1  0
  8  2  1  0
  9  5  1  0
  1 10  1  0
  2 11  1  0
  3 12  1  0
  3 13  1  0
  5 14  1  0
  6 15  1  0
  6 16  1  0
  8 17  1  0
  9 18  1  0
  9 19  1  0
M  END
