
     RDKit          3D

 19 21  0  0  0  0  0  0  0  0999 V2000
    1.9376   -1.5356    0.4219 O   0  0  0  0  0  0  0  0  0  0  0  0
    1.7343   -0.1805    0.1151 C   0  0  0  0  0  0  0  0  0  0  0  0
    1.2535    0.1443   -1.2432 C   0  0  0  0  0  0  0  0  0  0  0  0
    0.3886    0.2973   -0.0951 C   0  0  0  0  0  0  0  0  0  0  0  0
   -0.1518    1.5973    0.4041 C   0  0  0  0  0  0  0  0  0  0  0  0
   -1.5513    0.9759    0.3165 C   0  0  0  0  0  0  0  0  0  0  0  0
   -0.8705   -0.3733    0.1789 C   0  0  0  0  0  0  0  0  0  0  0  0
   -1.4774   -1.5253   -0.2019 C   0  0  0  0  0  0  0  0  0  0  0  0
   -1.0520   -1.3184    1.1610 O   0  0  0  0  0  0  0  0  0  0  0  0
    2.3604   -1.6057    1.3195 H   0  0  0  0  0  0  0  0  0  0  0  0
    2.5523    0.4827    0.4954 H   0  0  0  0  0  0  0  0  0  0  0  0
    1.1023   -0.7195   -1.9293 H   0  0  0  0  0  0  0  0  0  0  0  0
    1.5658    1.0645   -1.7798 H   0  0  0  0  0  0  0  0  0  0  0  0
   -0.0540    2.4744   -0.2439 H   0  0  0  0  0  0  0  0  0  0  0  0
    0.0484    1.8321    1.4789 H   0  0  0  0  0  0  0  0  0  0  0  0
   -2.1598    1.0863    1.2182 H   0  0  0  0  0  0  0  0  0  0  0  0
   -2.0607    1.3082   -0.6015 H   0  0  0  0  0  0  0  0  0  0  0  0
   -2.5951   -1.6314   -0.2845 H   0  0  0  0  0  0  0  0  0  0  0  0
   -0.9706   -2.3732   -0.7305 H   0  0  0  0  0  0  0  0  0  0  0  0
  1  2  1  0
  2  3  1  0
  3  4  1  0
  4  5  1  0
  5  6  1  0
  6  7  1  0
  7  8  1  0
  8  9  1  0
  4  2  1  0
  9  7  1  0
  7  4  1  0
  1 10  1  0
  2 11  1  0
  3 12  1  0
  3 13  1  0
  5 14  1  0
  5 15  1  0
  6 16  1  0
  6 17  1  0
  8 18  1  0
  8 19  1  0
M  END
