
     RDKit          3D

 21 23  0  0  0  0  0  0  0  0999 V2000
    2.3737   -0.8494    0.9843 O   0  0  0  0  0  0  0  0  0  0  0  0
    1.1163   -0.2752    0.9439 C   0  0  0  0  0  0  0  0  0  0  0  0
    0.1153   -1.1798    0.2085 C   0  0  0  0  0  0  0  0  0  0  0  0
    1.0088   -0.7840   -0.9786 C   0  0  0  0  0  0  0  0  0  0  0  0
    0.9327    0.5931   -0.3114 C   0  0  0  0  0  0  0  0  0  0  0  0
   -0.4183    1.2049   -0.3890 C   0  0  0  0  0  0  0  0  0  0  0  0
   -1.4271    0.3028   -1.1199 C   0  0  0  0  0  0  0  0  0  0  0  0
   -1.2410   -0.5766    0.1182 C   0  0  0  0  0  0  0  0  0  0  0  0
   -1.3276    0.8048    0.7822 C   0  0  0  0  0  0  0  0  0  0  0  0
    2.9748   -0.1817    1.4366 H   0  0  0  0  0  0  0  0  0  0  0  0
    0.8377    0.1290    1.8812 H   0  0  0  0  0  0  0  0  0  0  0  0
    0.1822   -2.2381    0.4912 H   0  0  0  0  0  0  0  0  0  0  0  0
    0.6297   -0.9030   -1.9575 H   0  0  0  0  0  0  0  0  0  0  0  0
    2.0249   -1.1720   -0.8715 H   0  0  0  0  0  0  0  0  0  0  0  0
    1.7987    1.2296   -0.4812 H   0  0  0  0  0  0  0  0  0  0  0  0
   -0.4847    2.2665   -0.6628 H   0  0  0  0  0  0  0  0  0  0  0  0
   -1.2030   -0.0645   -2.0760 H   0  0  0  0  0  0  0  0  0  0  0  0
   -2.4347    0.7629   -1.0593 H   0  0  0  0  0  0  0  0  0  0  0  0
   -2.1023   -1.2230    0.2876 H   0  0  0  0  0  0  0  0  0  0  0  0
   -2.3488    1.2149    0.5805 H   0  0  0  0  0  0  0  0  0  0  0  0
   -1.0072    0.9389    1.7711 H   0  0  0  0  0  0  0  0  0  0  0  0
  1  2  1  0
  2  3  1  0
  3  4  1  0
  4  5  1  0
  5  6  1  0
  6  7  1  0
  7  8  1  0
  8  9  1  0
  5  2  1  0
  9  6  1  0
  8  3  1  0
  1 10  1  0
  2 11  1  0
  3 12  1  0
  4 13  1  0
  4 14  1  0
  5 15  1  0
  6 16  1  0
  7 17  1  0
  7 18  1  0
  8 19  1  0
  9 20  1  0
  9 21  1  0
M  END
