
     RDKit          3D

 19 20  0  0  0  0  0  0  0  0999 V2000
    2.2469    0.3727    0.9837 O   0  0  0  0  0  0  0  0  0  0  0  0
    1.3393   -0.1411    0.0805 C   0  0  0  0  0  0  0  0  0  0  0  0
    0.7418    0.9608   -0.7693 C   0  0  0  0  0  0  0  0  0  0  0  0
   -0.7091    0.5656   -1.0196 C   0  0  0  0  0  0  0  0  0  0  0  0
   -1.4390    0.8598    0.2966 C   0  0  0  0  0  0  0  0  0  0  0  0
   -0.7097    0.2610    1.2950 O   0  0  0  0  0  0  0  0  0  0  0  0
    0.1465   -0.7382    0.8416 C   0  0  0  0  0  0  0  0  0  0  0  0
   -0.5857   -1.5840   -0.1937 C   0  0  0  0  0  0  0  0  0  0  0  0
   -0.8578   -0.7745   -1.2842 O   0  0  0  0  0  0  0  0  0  0  0  0
    1.9720    0.2066    1.9305 H   0  0  0  0  0  0  0  0  0  0  0  0
    1.7726   -0.8793   -0.6093 H   0  0  0  0  0  0  0  0  0  0  0  0
    1.2946    1.1734   -1.6765 H   0  0  0  0  0  0  0  0  0  0  0  0
    0.7343    1.8767   -0.1089 H   0  0  0  0  0  0  0  0  0  0  0  0
   -1.1466    1.1448   -1.8376 H   0  0  0  0  0  0  0  0  0  0  0  0
   -2.4718    0.4846    0.1926 H   0  0  0  0  0  0  0  0  0  0  0  0
   -1.4021    1.9836    0.3877 H   0  0  0  0  0  0  0  0  0  0  0  0
    0.5080   -1.3459    1.6681 H   0  0  0  0  0  0  0  0  0  0  0  0
   -1.4936   -1.9775    0.3033 H   0  0  0  0  0  0  0  0  0  0  0  0
    0.0595   -2.4492   -0.4803 H   0  0  0  0  0  0  0  0  0  0  0  0
  1  2  1  0
  2  3  1  0
  3  4  1  0
  4  5  1  0
  5  6  1  0
  6  7  1  0
  7  8  1  0
  8  9  1  0
  7  2  1  0
  9  4  1  0
  1 10  1  0
  2 11  1  0
  3 12  1  0
  3 13  1  0
  4 14  1  0
  5 15  1  0
  5 16  1  0
  7 17  1  0
  8 18  1  0
  8 19  1  0
M  END
