
     RDKit          3D

 19 21  0  0  0  0  0  0  0  0999 V2000
   -2.5045    0.9260    0.4789 O   0  0  0  0  0  0  0  0  0  0  0  0
   -1.8777   -0.2742    0.1765 C   0  0  0  0  0  0  0  0  0  0  0  0
   -1.1504   -0.3024   -1.1389 C   0  0  0  0  0  0  0  0  0  0  0  0
    0.1659   -0.3369   -0.4076 C   0  0  0  0  0  0  0  0  0  0  0  0
    1.1620    0.7156   -0.7293 C   0  0  0  0  0  0  0  0  0  0  0  0
    2.4659    0.8482   -0.1400 C   0  0  0  0  0  0  0  0  0  0  0  0
    1.4113    1.6322    0.3207 O   0  0  0  0  0  0  0  0  0  0  0  0
    0.4144   -1.4830    0.4574 C   0  0  0  0  0  0  0  0  0  0  0  0
   -0.5489   -0.4349    0.8675 C   0  0  0  0  0  0  0  0  0  0  0  0
   -2.3362    1.5479   -0.2766 H   0  0  0  0  0  0  0  0  0  0  0  0
   -2.5861   -1.1029    0.2669 H   0  0  0  0  0  0  0  0  0  0  0  0
   -1.3838   -1.1507   -1.7840 H   0  0  0  0  0  0  0  0  0  0  0  0
   -1.2755    0.6586   -1.7165 H   0  0  0  0  0  0  0  0  0  0  0  0
    1.0139    1.1696   -1.7547 H   0  0  0  0  0  0  0  0  0  0  0  0
    2.8801    0.0674    0.5373 H   0  0  0  0  0  0  0  0  0  0  0  0
    3.2419    1.4268   -0.6806 H   0  0  0  0  0  0  0  0  0  0  0  0
    1.2851   -1.6189    1.0949 H   0  0  0  0  0  0  0  0  0  0  0  0
   -0.0559   -2.4626    0.1554 H   0  0  0  0  0  0  0  0  0  0  0  0
   -0.3215    0.1742    1.7535 H   0  0  0  0  0  0  0  0  0  0  0  0
  1  2  1  0
  2  3  1  0
  3  4  1  0
  4  5  1  0
  5  6  1  0
  6  7  1  0
  4  8  1  0
  8  9  1  0
  9  2  1  0
  9  4  1  0
  7  5  1  0
  1 10  1  0
  2 11  1  0
  3 12  1  0
  3 13  1  0
  5 14  1  0
  6 15  1  0
  6 16  1  0
  8 17  1  0
  8 18  1  0
  9 19  1  0
M  END
