
     RDKit          3D

 18 19  0  0  0  0  0  0  0  0999 V2000
    2.3637   -0.4159   -1.2519 O   0  0  0  0  0  0  0  0  0  0  0  0
    1.3950    0.1789   -0.4795 C   0  0  0  0  0  0  0  0  0  0  0  0
    1.5072   -0.1752    1.0307 C   0  0  0  0  0  0  0  0  0  0  0  0
    0.0442    0.0821    1.0479 C   0  0  0  0  0  0  0  0  0  0  0  0
   -1.2103    0.3976    1.3060 C   0  0  0  0  0  0  0  0  0  0  0  0
   -2.0916    0.0934    0.1250 C   0  0  0  0  0  0  0  0  0  0  0  0
   -1.1008    0.0281   -1.0402 C   0  0  0  0  0  0  0  0  0  0  0  0
    0.0882   -0.5537   -0.3497 C   0  0  0  0  0  0  0  0  0  0  0  0
    3.0706    0.2515   -1.4189 H   0  0  0  0  0  0  0  0  0  0  0  0
    1.2081    1.2547   -0.6399 H   0  0  0  0  0  0  0  0  0  0  0  0
    2.1315    0.5302    1.5926 H   0  0  0  0  0  0  0  0  0  0  0  0
    1.7230   -1.2383    1.1310 H   0  0  0  0  0  0  0  0  0  0  0  0
   -1.5934    0.8191    2.2272 H   0  0  0  0  0  0  0  0  0  0  0  0
   -2.5187   -0.9090    0.2934 H   0  0  0  0  0  0  0  0  0  0  0  0
   -2.8218    0.8956   -0.0611 H   0  0  0  0  0  0  0  0  0  0  0  0
   -1.5058   -0.6300   -1.8153 H   0  0  0  0  0  0  0  0  0  0  0  0
   -0.8392    1.0433   -1.3977 H   0  0  0  0  0  0  0  0  0  0  0  0
    0.1500   -1.6522   -0.2995 H   0  0  0  0  0  0  0  0  0  0  0  0
  1  2  1  0
  2  3  1  0
  3  4  1  0
  4  5  2  0
  5  6  1  0
  6  7  1  0
  7  8  1  0
  8  2  1  0
  8  4  1  0
  1  9  1  0
  2 10  1  0
  3 11  1  0
  3 12  1  0
  5 13  1  0
  6 14  1  0
  6 15  1  0
  7 16  1  0
  7 17  1  0
  8 18  1  0
M  END
