
     RDKit          3D

 18 19  0  0  0  0  0  0  0  0999 V2000
   -0.5390   -1.5403    1.1117 O   0  0  0  0  0  0  0  0  0  0  0  0
    0.1743   -0.4049    0.8004 C   0  0  0  0  0  0  0  0  0  0  0  0
    1.5012   -0.7641    0.1328 C   0  0  0  0  0  0  0  0  0  0  0  0
    1.7364    0.5255   -0.6534 C   0  0  0  0  0  0  0  0  0  0  0  0
    0.4821    0.8589   -1.1365 O   0  0  0  0  0  0  0  0  0  0  0  0
   -0.4617    0.4556   -0.2417 C   0  0  0  0  0  0  0  0  0  0  0  0
   -1.6701    1.2377   -0.0413 C   0  0  0  0  0  0  0  0  0  0  0  0
   -1.7884   -0.0470   -0.7489 C   0  0  0  0  0  0  0  0  0  0  0  0
    0.0036   -2.0648    1.7521 H   0  0  0  0  0  0  0  0  0  0  0  0
    0.4040    0.1431    1.7186 H   0  0  0  0  0  0  0  0  0  0  0  0
    2.2642   -0.8954    0.9001 H   0  0  0  0  0  0  0  0  0  0  0  0
    1.3459   -1.6254   -0.5329 H   0  0  0  0  0  0  0  0  0  0  0  0
    2.4127    0.3864   -1.4970 H   0  0  0  0  0  0  0  0  0  0  0  0
    2.1009    1.2639    0.0949 H   0  0  0  0  0  0  0  0  0  0  0  0
   -1.7347    2.2057   -0.6168 H   0  0  0  0  0  0  0  0  0  0  0  0
   -2.0928    1.3018    0.9818 H   0  0  0  0  0  0  0  0  0  0  0  0
   -2.2781   -0.8830   -0.1928 H   0  0  0  0  0  0  0  0  0  0  0  0
   -1.8605   -0.1538   -1.8311 H   0  0  0  0  0  0  0  0  0  0  0  0
  1  2  1  0
  2  3  1  0
  3  4  1  0
  4  5  1  0
  5  6  1  0
  6  7  1  0
  7  8  1  0
  6  2  1  0
  8  6  1  0
  1  9  1  0
  2 10  1  0
  3 11  1  0
  3 12  1  0
  4 13  1  0
  4 14  1  0
  7 15  1  0
  7 16  1  0
  8 17  1  0
  8 18  1  0
M  END
