
     RDKit          3D

 16 18  0  0  0  0  0  0  0  0999 V2000
    2.3429    0.0924    0.7741 O   0  0  0  0  0  0  0  0  0  0  0  0
    1.5713   -0.2314   -0.3696 C   0  0  0  0  0  0  0  0  0  0  0  0
    0.3935   -0.9103   -0.1811 C   0  0  0  0  0  0  0  0  0  0  0  0
   -0.7510   -0.6943    0.7322 C   0  0  0  0  0  0  0  0  0  0  0  0
   -1.7135    0.4312    0.7261 C   0  0  0  0  0  0  0  0  0  0  0  0
   -1.1389    0.0716   -0.5657 C   0  0  0  0  0  0  0  0  0  0  0  0
    0.3283    0.4370   -0.7369 C   0  0  0  0  0  0  0  0  0  0  0  0
    0.4706    1.7115   -0.3324 O   0  0  0  0  0  0  0  0  0  0  0  0
    2.1946   -0.5582    1.4958 H   0  0  0  0  0  0  0  0  0  0  0  0
    2.2605   -0.4523   -1.2248 H   0  0  0  0  0  0  0  0  0  0  0  0
    0.1446   -1.6949   -0.9793 H   0  0  0  0  0  0  0  0  0  0  0  0
   -1.3165   -1.6481    0.9659 H   0  0  0  0  0  0  0  0  0  0  0  0
   -2.7896    0.3357    0.8471 H   0  0  0  0  0  0  0  0  0  0  0  0
   -1.3120    1.3753    1.1979 H   0  0  0  0  0  0  0  0  0  0  0  0
   -1.6478   -0.5021   -1.3403 H   0  0  0  0  0  0  0  0  0  0  0  0
    0.9631    2.2368   -1.0091 H   0  0  0  0  0  0  0  0  0  0  0  0
  1  2  1  0
  2  3  1  0
  3  4  1  0
  4  5  1  0
  5  6  1  0
  6  7  1  0
  7  8  1  0
  7  2  1  0
  7  3  1  0
  6  4  1  0
  1  9  1  0
  2 10  1  0
  3 11  1  0
  4 12  1  0
  5 13  1  0
  5 14  1  0
  6 15  1  0
  8 16  1  0
M  END
