
     RDKit          3D

 19 20  0  0  0  0  0  0  0  0999 V2000
    1.7414   -1.6865    0.2125 O   0  0  0  0  0  0  0  0  0  0  0  0
    1.7487   -0.3063    0.0773 C   0  0  0  0  0  0  0  0  0  0  0  0
    1.0645    0.3226   -1.1183 C   0  0  0  0  0  0  0  0  0  0  0  0
    0.5132    0.4911    0.2520 C   0  0  0  0  0  0  0  0  0  0  0  0
    0.6686    1.7458    0.8569 O   0  0  0  0  0  0  0  0  0  0  0  0
   -0.8037   -0.1612    0.5632 C   0  0  0  0  0  0  0  0  0  0  0  0
   -1.0490   -0.4028    1.9171 O   0  0  0  0  0  0  0  0  0  0  0  0
   -1.9847    0.4576   -0.1534 C   0  0  0  0  0  0  0  0  0  0  0  0
   -1.5408   -0.9794   -0.3964 C   0  0  0  0  0  0  0  0  0  0  0  0
    2.6755   -2.0106    0.1500 H   0  0  0  0  0  0  0  0  0  0  0  0
    2.7159    0.1936    0.3246 H   0  0  0  0  0  0  0  0  0  0  0  0
    1.5104    1.2213   -1.5919 H   0  0  0  0  0  0  0  0  0  0  0  0
    0.6406   -0.4335   -1.8138 H   0  0  0  0  0  0  0  0  0  0  0  0
    1.0613    2.3902    0.2374 H   0  0  0  0  0  0  0  0  0  0  0  0
   -0.8010    0.3446    2.4907 H   0  0  0  0  0  0  0  0  0  0  0  0
   -1.7921    1.2089   -0.9558 H   0  0  0  0  0  0  0  0  0  0  0  0
   -2.9446    0.5750    0.3734 H   0  0  0  0  0  0  0  0  0  0  0  0
   -1.2183   -1.1809   -1.4279 H   0  0  0  0  0  0  0  0  0  0  0  0
   -2.2059   -1.7895    0.0024 H   0  0  0  0  0  0  0  0  0  0  0  0
  1  2  1  0
  2  3  1  0
  3  4  1  0
  4  5  1  0
  4  6  1  0
  6  7  1  0
  6  8  1  0
  8  9  1  0
  4  2  1  0
  9  6  1  0
  1 10  1  0
  2 11  1  0
  3 12  1  0
  3 13  1  0
  5 14  1  0
  7 15  1  0
  8 16  1  0
  8 17  1  0
  9 18  1  0
  9 19  1  0
M  END
