
     RDKit          3D

 21 22  0  0  0  0  0  0  0  0999 V2000
   -2.7918   -0.5139    0.8178 O   0  0  0  0  0  0  0  0  0  0  0  0
   -1.8129   -0.3617   -0.1310 C   0  0  0  0  0  0  0  0  0  0  0  0
   -0.5798   -1.1788    0.2800 C   0  0  0  0  0  0  0  0  0  0  0  0
    0.2210    0.0426    0.0749 C   0  0  0  0  0  0  0  0  0  0  0  0
    1.3270    0.3628    0.9918 C   0  0  0  0  0  0  0  0  0  0  0  0
    2.2769   -0.2586   -0.0462 C   0  0  0  0  0  0  0  0  0  0  0  0
    1.1828    0.0703   -1.0732 C   0  0  0  0  0  0  0  0  0  0  0  0
   -0.9654    0.9113    0.0150 C   0  0  0  0  0  0  0  0  0  0  0  0
   -1.1334    1.7082   -1.1086 O   0  0  0  0  0  0  0  0  0  0  0  0
   -2.9800   -1.5035    0.8859 H   0  0  0  0  0  0  0  0  0  0  0  0
   -2.1359   -0.5555   -1.1769 H   0  0  0  0  0  0  0  0  0  0  0  0
   -0.6096   -1.5675    1.3022 H   0  0  0  0  0  0  0  0  0  0  0  0
   -0.3521   -1.9390   -0.5208 H   0  0  0  0  0  0  0  0  0  0  0  0
    1.3605   -0.0951    1.9766 H   0  0  0  0  0  0  0  0  0  0  0  0
    1.5394    1.4676    0.9940 H   0  0  0  0  0  0  0  0  0  0  0  0
    2.3699   -1.3457    0.1686 H   0  0  0  0  0  0  0  0  0  0  0  0
    3.2031    0.2971   -0.2060 H   0  0  0  0  0  0  0  0  0  0  0  0
    1.3356    1.0829   -1.4705 H   0  0  0  0  0  0  0  0  0  0  0  0
    1.0033   -0.7361   -1.8077 H   0  0  0  0  0  0  0  0  0  0  0  0
   -1.2744    1.4394    0.9285 H   0  0  0  0  0  0  0  0  0  0  0  0
   -1.1842    2.6733   -0.8944 H   0  0  0  0  0  0  0  0  0  0  0  0
  1  2  1  0
  2  3  1  0
  3  4  1  0
  4  5  1  0
  5  6  1  0
  6  7  1  0
  4  8  1  0
  8  9  1  0
  8  2  1  0
  7  4  1  0
  1 10  1  0
  2 11  1  0
  3 12  1  0
  3 13  1  0
  5 14  1  0
  5 15  1  0
  6 16  1  0
  6 17  1  0
  7 18  1  0
  7 19  1  0
  8 20  1  0
  9 21  1  0
M  END
