
     RDKit          3D

 19 21  0  0  0  0  0  0  0  0999 V2000
    2.7869    0.5501    0.0054 O   0  0  0  0  0  0  0  0  0  0  0  0
    1.4578    0.5676    0.4261 C   0  0  0  0  0  0  0  0  0  0  0  0
    0.6289    1.7005   -0.1474 C   0  0  0  0  0  0  0  0  0  0  0  0
   -0.2449    0.6751   -0.8375 C   0  0  0  0  0  0  0  0  0  0  0  0
   -1.5984    0.3540   -0.2993 C   0  0  0  0  0  0  0  0  0  0  0  0
   -1.5704   -1.0388    0.2534 C   0  0  0  0  0  0  0  0  0  0  0  0
   -0.1258   -1.4949    0.2406 C   0  0  0  0  0  0  0  0  0  0  0  0
    0.6423   -0.3856   -0.3852 C   0  0  0  0  0  0  0  0  0  0  0  0
    0.4002   -0.1596   -1.7165 O   0  0  0  0  0  0  0  0  0  0  0  0
    3.1397   -0.3633    0.2340 H   0  0  0  0  0  0  0  0  0  0  0  0
    1.3023    0.5055    1.5042 H   0  0  0  0  0  0  0  0  0  0  0  0
    0.1144    2.3359    0.5838 H   0  0  0  0  0  0  0  0  0  0  0  0
    1.1865    2.2899   -0.9143 H   0  0  0  0  0  0  0  0  0  0  0  0
   -2.3135    0.3404   -1.1704 H   0  0  0  0  0  0  0  0  0  0  0  0
   -1.8766    1.1111    0.4519 H   0  0  0  0  0  0  0  0  0  0  0  0
   -1.9904   -1.1106    1.2867 H   0  0  0  0  0  0  0  0  0  0  0  0
   -2.1756   -1.7622   -0.3508 H   0  0  0  0  0  0  0  0  0  0  0  0
   -0.0120   -2.3959   -0.4328 H   0  0  0  0  0  0  0  0  0  0  0  0
    0.2487   -1.7193    1.2681 H   0  0  0  0  0  0  0  0  0  0  0  0
  1  2  1  0
  2  3  1  0
  3  4  1  0
  4  5  1  0
  5  6  1  0
  6  7  1  0
  7  8  1  0
  8  9  1  0
  8  2  1  0
  8  4  1  0
  9  4  1  0
  1 10  1  0
  2 11  1  0
  3 12  1  0
  3 13  1  0
  5 14  1  0
  5 15  1  0
  6 16  1  0
  6 17  1  0
  7 18  1  0
  7 19  1  0
M  END
