
     RDKit          3D

 17 18  0  0  0  0  0  0  0  0999 V2000
   -1.6293    1.8875   -0.0891 O   0  0  0  0  0  0  0  0  0  0  0  0
   -1.1916    0.6720    0.4326 C   0  0  0  0  0  0  0  0  0  0  0  0
   -1.4522   -0.6010   -0.2915 C   0  0  0  0  0  0  0  0  0  0  0  0
   -1.7071   -1.7330    0.4978 O   0  0  0  0  0  0  0  0  0  0  0  0
   -0.0970   -0.0608   -0.3697 C   0  0  0  0  0  0  0  0  0  0  0  0
    0.2681    0.5693   -1.5746 O   0  0  0  0  0  0  0  0  0  0  0  0
    1.0376   -0.5348    0.4688 C   0  0  0  0  0  0  0  0  0  0  0  0
    2.4349   -0.1578    0.0287 C   0  0  0  0  0  0  0  0  0  0  0  0
    1.9430   -1.4681   -0.0191 O   0  0  0  0  0  0  0  0  0  0  0  0
   -1.6142    2.5777    0.6194 H   0  0  0  0  0  0  0  0  0  0  0  0
   -1.1472    0.6137    1.5331 H   0  0  0  0  0  0  0  0  0  0  0  0
   -2.0903   -0.5211   -1.2051 H   0  0  0  0  0  0  0  0  0  0  0  0
   -1.8649   -2.5059   -0.0951 H   0  0  0  0  0  0  0  0  0  0  0  0
    0.5597    1.4828   -1.3493 H   0  0  0  0  0  0  0  0  0  0  0  0
    0.8607   -0.6420    1.5744 H   0  0  0  0  0  0  0  0  0  0  0  0
    2.5188    0.3096   -0.9770 H   0  0  0  0  0  0  0  0  0  0  0  0
    3.1710    0.1120    0.8159 H   0  0  0  0  0  0  0  0  0  0  0  0
  1  2  1  0
  2  3  1  0
  3  4  1  0
  3  5  1  0
  5  6  1  0
  5  7  1  0
  7  8  1  0
  8  9  1  0
  5  2  1  0
  9  7  1  0
  1 10  1  0
  2 11  1  0
  3 12  1  0
  4 13  1  0
  6 14  1  0
  7 15  1  0
  8 16  1  0
  8 17  1  0
M  END
