
     RDKit          3D

 19 20  0  0  0  0  0  0  0  0999 V2000
    2.5564    0.2214   -0.5977 O   0  0  0  0  0  0  0  0  0  0  0  0
    1.3869    0.0565    0.1889 C   0  0  0  0  0  0  0  0  0  0  0  0
    0.5604    1.2267   -0.0066 C   0  0  0  0  0  0  0  0  0  0  0  0
   -0.7328    1.4999   -0.0762 C   0  0  0  0  0  0  0  0  0  0  0  0
   -1.8560    0.5531    0.0430 C   0  0  0  0  0  0  0  0  0  0  0  0
   -1.3702   -0.7079    0.6365 C   0  0  0  0  0  0  0  0  0  0  0  0
   -1.5682   -1.9526    0.1820 O   0  0  0  0  0  0  0  0  0  0  0  0
   -0.5713   -1.3567   -0.5071 C   0  0  0  0  0  0  0  0  0  0  0  0
    0.8520   -1.2798   -0.0847 C   0  0  0  0  0  0  0  0  0  0  0  0
    3.0815    1.0064   -0.2901 H   0  0  0  0  0  0  0  0  0  0  0  0
    1.7863    0.0912    1.2471 H   0  0  0  0  0  0  0  0  0  0  0  0
    1.1537    2.1531   -0.1329 H   0  0  0  0  0  0  0  0  0  0  0  0
   -1.0362    2.5412   -0.2407 H   0  0  0  0  0  0  0  0  0  0  0  0
   -2.2630    0.4187   -1.0032 H   0  0  0  0  0  0  0  0  0  0  0  0
   -2.7255    1.0060    0.6003 H   0  0  0  0  0  0  0  0  0  0  0  0
   -0.8778   -0.5861    1.6229 H   0  0  0  0  0  0  0  0  0  0  0  0
   -0.7726   -1.0973   -1.5358 H   0  0  0  0  0  0  0  0  0  0  0  0
    1.4466   -1.8421   -0.8675 H   0  0  0  0  0  0  0  0  0  0  0  0
    0.9499   -1.9519    0.8217 H   0  0  0  0  0  0  0  0  0  0  0  0
  1  2  1  0
  2  3  1  0
  3  4  2  0
  4  5  1  0
  5  6  1  0
  6  7  1  0
  7  8  1  0
  8  9  1  0
  9  2  1  0
  8  6  1  0
  1 10  1  0
  2 11  1  0
  3 12  1  0
  4 13  1  0
  5 14  1  0
  5 15  1  0
  6 16  1  0
  8 17  1  0
  9 18  1  0
  9 19  1  0
M  END
