
     RDKit          3D

 18 19  0  0  0  0  0  0  0  0999 V2000
   -0.7948   -1.4765    1.0298 O   0  0  0  0  0  0  0  0  0  0  0  0
   -0.7085   -1.0965   -0.3233 C   0  0  0  0  0  0  0  0  0  0  0  0
   -1.2621    0.3378   -0.4874 C   0  0  0  0  0  0  0  0  0  0  0  0
   -0.0539    1.2531   -0.1972 C   0  0  0  0  0  0  0  0  0  0  0  0
   -0.5314    2.2374    0.6759 O   0  0  0  0  0  0  0  0  0  0  0  0
    0.8258    0.2967    0.4982 C   0  0  0  0  0  0  0  0  0  0  0  0
    1.8638   -0.5673    0.1167 C   0  0  0  0  0  0  0  0  0  0  0  0
    0.7059   -0.8022   -0.6378 C   0  0  0  0  0  0  0  0  0  0  0  0
   -1.7696   -1.6630    1.1776 H   0  0  0  0  0  0  0  0  0  0  0  0
   -1.2082   -1.7944   -0.9929 H   0  0  0  0  0  0  0  0  0  0  0  0
   -2.0919    0.5309    0.1824 H   0  0  0  0  0  0  0  0  0  0  0  0
   -1.4701    0.4412   -1.5597 H   0  0  0  0  0  0  0  0  0  0  0  0
    0.3295    1.7228   -1.0942 H   0  0  0  0  0  0  0  0  0  0  0  0
    0.1163    2.4728    1.3751 H   0  0  0  0  0  0  0  0  0  0  0  0
    0.3285    0.0242    1.4843 H   0  0  0  0  0  0  0  0  0  0  0  0
    2.2036   -1.3911    0.8127 H   0  0  0  0  0  0  0  0  0  0  0  0
    2.7745   -0.1312   -0.3623 H   0  0  0  0  0  0  0  0  0  0  0  0
    0.7424   -0.3946   -1.6980 H   0  0  0  0  0  0  0  0  0  0  0  0
  1  2  1  0
  2  3  1  0
  3  4  1  0
  4  5  1  0
  4  6  1  0
  6  7  1  0
  7  8  1  0
  8  2  1  0
  8  6  1  0
  1  9  1  0
  2 10  1  0
  3 11  1  0
  3 12  1  0
  4 13  1  0
  5 14  1  0
  6 15  1  0
  7 16  1  0
  7 17  1  0
  8 18  1  0
M  END
