
     RDKit          3D

 17 19  0  0  0  0  0  0  0  0999 V2000
   -2.3204    0.3279    0.7765 O   0  0  0  0  0  0  0  0  0  0  0  0
   -1.3156    0.4278   -0.1316 C   0  0  0  0  0  0  0  0  0  0  0  0
   -0.4861   -0.8725   -0.2389 C   0  0  0  0  0  0  0  0  0  0  0  0
   -0.3194   -1.0155    1.1643 O   0  0  0  0  0  0  0  0  0  0  0  0
    0.4626    0.1581    1.3499 C   0  0  0  0  0  0  0  0  0  0  0  0
    1.6567   -0.3497    0.5107 C   0  0  0  0  0  0  0  0  0  0  0  0
    0.7913   -0.3144   -0.7726 C   0  0  0  0  0  0  0  0  0  0  0  0
    0.6588    1.0998   -0.7775 O   0  0  0  0  0  0  0  0  0  0  0  0
   -0.0893    1.1863    0.4276 C   0  0  0  0  0  0  0  0  0  0  0  0
   -2.5367   -0.5702    1.0880 H   0  0  0  0  0  0  0  0  0  0  0  0
   -1.5745    0.7541   -1.1301 H   0  0  0  0  0  0  0  0  0  0  0  0
   -0.9577   -1.6642   -0.7326 H   0  0  0  0  0  0  0  0  0  0  0  0
    0.6881    0.4058    2.3423 H   0  0  0  0  0  0  0  0  0  0  0  0
    2.4614    0.3779    0.4712 H   0  0  0  0  0  0  0  0  0  0  0  0
    1.9339   -1.3657    0.7769 H   0  0  0  0  0  0  0  0  0  0  0  0
    1.2347   -0.7405   -1.6186 H   0  0  0  0  0  0  0  0  0  0  0  0
   -0.2878    2.1550    0.7761 H   0  0  0  0  0  0  0  0  0  0  0  0
  1  2  1  0
  2  3  1  0
  3  4  1  0
  4  5  1  0
  5  6  1  0
  6  7  1  0
  7  8  1  0
  8  9  1  0
  9  2  1  0
  7  3  1  0
  9  5  1  0
  1 10  1  0
  2 11  1  0
  3 12  1  0
  5 13  1  0
  6 14  1  0
  6 15  1  0
  7 16  1  0
  9 17  1  0
M  END
