
     RDKit          3D

 19 21  0  0  0  0  0  0  0  0999 V2000
   -1.9213    1.0227    0.1303 O   0  0  0  0  0  0  0  0  0  0  0  0
   -0.6436    0.9695   -0.3469 C   0  0  0  0  0  0  0  0  0  0  0  0
   -0.3534   -0.3423   -1.1055 C   0  0  0  0  0  0  0  0  0  0  0  0
   -0.9886   -1.2398   -0.0181 C   0  0  0  0  0  0  0  0  0  0  0  0
    0.0909   -0.8105    1.0076 C   0  0  0  0  0  0  0  0  0  0  0  0
    1.1520   -1.4491    0.3045 O   0  0  0  0  0  0  0  0  0  0  0  0
    1.0836   -0.6261   -0.8564 C   0  0  0  0  0  0  0  0  0  0  0  0
    1.5680    0.6445   -0.1205 C   0  0  0  0  0  0  0  0  0  0  0  0
    0.3298    0.6359    0.8031 C   0  0  0  0  0  0  0  0  0  0  0  0
   -2.3922    1.7953   -0.2293 H   0  0  0  0  0  0  0  0  0  0  0  0
   -0.3017    1.8423   -0.9002 H   0  0  0  0  0  0  0  0  0  0  0  0
   -0.7642   -0.4241   -2.0585 H   0  0  0  0  0  0  0  0  0  0  0  0
   -1.9763   -0.8947    0.2697 H   0  0  0  0  0  0  0  0  0  0  0  0
   -0.8993   -2.2960   -0.2701 H   0  0  0  0  0  0  0  0  0  0  0  0
   -0.0752   -1.1804    1.9851 H   0  0  0  0  0  0  0  0  0  0  0  0
    1.7005   -0.9308   -1.6554 H   0  0  0  0  0  0  0  0  0  0  0  0
    1.5579    1.5140   -0.7775 H   0  0  0  0  0  0  0  0  0  0  0  0
    2.4848    0.4629    0.4314 H   0  0  0  0  0  0  0  0  0  0  0  0
    0.3482    1.3067    1.5979 H   0  0  0  0  0  0  0  0  0  0  0  0
  1  2  1  0
  2  3  1  0
  3  4  1  0
  4  5  1  0
  5  6  1  0
  6  7  1  0
  7  8  1  0
  8  9  1  0
  9  2  1  0
  7  3  1  0
  9  5  1  0
  1 10  1  0
  2 11  1  0
  3 12  1  0
  4 13  1  0
  4 14  1  0
  5 15  1  0
  7 16  1  0
  8 17  1  0
  8 18  1  0
  9 19  1  0
M  END
