
     RDKit          3D

 18 19  0  0  0  0  0  0  0  0999 V2000
    1.9649   -1.0913    1.3099 O   0  0  0  0  0  0  0  0  0  0  0  0
    1.0614   -0.6954    0.3224 C   0  0  0  0  0  0  0  0  0  0  0  0
    1.2115    0.7601   -0.0448 C   0  0  0  0  0  0  0  0  0  0  0  0
   -0.1541    1.3700   -0.0379 C   0  0  0  0  0  0  0  0  0  0  0  0
   -1.0995    0.3845    0.5472 C   0  0  0  0  0  0  0  0  0  0  0  0
   -1.8578   -0.4865   -0.3991 C   0  0  0  0  0  0  0  0  0  0  0  0
   -1.1350   -1.6253   -0.0291 O   0  0  0  0  0  0  0  0  0  0  0  0
   -0.3400   -0.8795    0.8301 C   0  0  0  0  0  0  0  0  0  0  0  0
    2.8700   -1.2527    0.9705 H   0  0  0  0  0  0  0  0  0  0  0  0
    1.2587   -1.3378   -0.5759 H   0  0  0  0  0  0  0  0  0  0  0  0
    1.9396    1.2862    0.6149 H   0  0  0  0  0  0  0  0  0  0  0  0
    1.6417    0.8405   -1.0764 H   0  0  0  0  0  0  0  0  0  0  0  0
   -0.4652    1.7829   -1.0173 H   0  0  0  0  0  0  0  0  0  0  0  0
   -0.1105    2.2592    0.6560 H   0  0  0  0  0  0  0  0  0  0  0  0
   -1.7275    0.7629    1.3954 H   0  0  0  0  0  0  0  0  0  0  0  0
   -1.7221   -0.2921   -1.4780 H   0  0  0  0  0  0  0  0  0  0  0  0
   -2.9325   -0.6472   -0.1248 H   0  0  0  0  0  0  0  0  0  0  0  0
   -0.4036   -1.1385    1.9013 H   0  0  0  0  0  0  0  0  0  0  0  0
  1  2  1  0
  2  3  1  0
  3  4  1  0
  4  5  1  0
  5  6  1  0
  6  7  1  0
  7  8  1  0
  8  2  1  0
  8  5  1  0
  1  9  1  0
  2 10  1  0
  3 11  1  0
  3 12  1  0
  4 13  1  0
  4 14  1  0
  5 15  1  0
  6 16  1  0
  6 17  1  0
  8 18  1  0
M  END
