
     RDKit          3D

 17 19  0  0  0  0  0  0  0  0999 V2000
    2.6388   -0.4192    0.0921 O   0  0  0  0  0  0  0  0  0  0  0  0
    1.3225   -0.3600    0.4621 C   0  0  0  0  0  0  0  0  0  0  0  0
    0.6229    0.8743   -0.1211 C   0  0  0  0  0  0  0  0  0  0  0  0
    0.5921    0.1532   -1.3394 O   0  0  0  0  0  0  0  0  0  0  0  0
    0.3466   -0.9841   -0.5341 C   0  0  0  0  0  0  0  0  0  0  0  0
   -1.0523   -0.8916    0.0168 C   0  0  0  0  0  0  0  0  0  0  0  0
   -1.7532    0.3568   -0.5377 C   0  0  0  0  0  0  0  0  0  0  0  0
   -0.7531    0.9481    0.4611 C   0  0  0  0  0  0  0  0  0  0  0  0
   -1.0304   -0.1948    1.2494 O   0  0  0  0  0  0  0  0  0  0  0  0
    3.1585    0.1513    0.6992 H   0  0  0  0  0  0  0  0  0  0  0  0
    1.0686   -0.5644    1.5038 H   0  0  0  0  0  0  0  0  0  0  0  0
    1.2218    1.7809   -0.1411 H   0  0  0  0  0  0  0  0  0  0  0  0
    0.6522   -1.9310   -0.9665 H   0  0  0  0  0  0  0  0  0  0  0  0
   -1.6528   -1.7974    0.0107 H   0  0  0  0  0  0  0  0  0  0  0  0
   -1.5334    0.5663   -1.5859 H   0  0  0  0  0  0  0  0  0  0  0  0
   -2.7894    0.4321   -0.1998 H   0  0  0  0  0  0  0  0  0  0  0  0
   -1.0593    1.8797    0.9305 H   0  0  0  0  0  0  0  0  0  0  0  0
  1  2  1  0
  2  3  1  0
  3  4  1  0
  4  5  1  0
  5  6  1  0
  6  7  1  0
  7  8  1  0
  8  9  1  0
  5  2  1  0
  9  6  1  0
  8  3  1  0
  1 10  1  0
  2 11  1  0
  3 12  1  0
  5 13  1  0
  6 14  1  0
  7 15  1  0
  7 16  1  0
  8 17  1  0
M  END
