
     RDKit          3D

 21 22  0  0  0  0  0  0  0  0999 V2000
   -0.5968    1.0404    1.4128 O   0  0  0  0  0  0  0  0  0  0  0  0
   -1.3065    0.3085    0.4750 C   0  0  0  0  0  0  0  0  0  0  0  0
   -1.0059    0.6300   -0.9696 C   0  0  0  0  0  0  0  0  0  0  0  0
    0.3161    1.3108   -1.0018 C   0  0  0  0  0  0  0  0  0  0  0  0
    1.3967    0.8872   -0.3613 C   0  0  0  0  0  0  0  0  0  0  0  0
    1.5997   -0.0961    0.6912 C   0  0  0  0  0  0  0  0  0  0  0  0
    0.6613   -1.2160    0.7838 C   0  0  0  0  0  0  0  0  0  0  0  0
   -0.7020   -1.0385    0.2612 C   0  0  0  0  0  0  0  0  0  0  0  0
   -0.8299   -0.8744   -1.2114 C   0  0  0  0  0  0  0  0  0  0  0  0
   -0.9121    1.9818    1.4879 H   0  0  0  0  0  0  0  0  0  0  0  0
   -2.4178    0.3130    0.6309 H   0  0  0  0  0  0  0  0  0  0  0  0
   -1.8039    1.0987   -1.5401 H   0  0  0  0  0  0  0  0  0  0  0  0
    0.3676    2.2150   -1.6001 H   0  0  0  0  0  0  0  0  0  0  0  0
    2.3012    1.3846   -0.7028 H   0  0  0  0  0  0  0  0  0  0  0  0
    2.6420   -0.5183    0.5803 H   0  0  0  0  0  0  0  0  0  0  0  0
    1.6558    0.4717    1.6684 H   0  0  0  0  0  0  0  0  0  0  0  0
    1.0944   -2.1499    0.3175 H   0  0  0  0  0  0  0  0  0  0  0  0
    0.5613   -1.5026    1.8744 H   0  0  0  0  0  0  0  0  0  0  0  0
   -1.3834   -1.8456    0.6473 H   0  0  0  0  0  0  0  0  0  0  0  0
   -1.7178   -1.3656   -1.6268 H   0  0  0  0  0  0  0  0  0  0  0  0
    0.0802   -1.0347   -1.8168 H   0  0  0  0  0  0  0  0  0  0  0  0
  1  2  1  0
  2  3  1  0
  3  4  1  0
  4  5  2  0
  5  6  1  0
  6  7  1  0
  7  8  1  0
  8  9  1  0
  8  2  1  0
  9  3  1  0
  1 10  1  0
  2 11  1  0
  3 12  1  0
  4 13  1  0
  5 14  1  0
  6 15  1  0
  6 16  1  0
  7 17  1  0
  7 18  1  0
  8 19  1  0
  9 20  1  0
  9 21  1  0
M  END
