
     RDKit          3D

 19 20  0  0  0  0  0  0  0  0999 V2000
    2.3602   -0.3982    0.8058 O   0  0  0  0  0  0  0  0  0  0  0  0
    1.4340    0.1137   -0.0531 C   0  0  0  0  0  0  0  0  0  0  0  0
    0.6921   -0.9729   -0.8443 C   0  0  0  0  0  0  0  0  0  0  0  0
   -0.7601   -0.6519   -0.6657 C   0  0  0  0  0  0  0  0  0  0  0  0
   -1.0911   -0.9258    0.7981 C   0  0  0  0  0  0  0  0  0  0  0  0
   -0.2963   -0.0376    1.5096 O   0  0  0  0  0  0  0  0  0  0  0  0
    0.2968    0.8389    0.6126 C   0  0  0  0  0  0  0  0  0  0  0  0
   -0.6914    0.8818   -0.5682 C   0  0  0  0  0  0  0  0  0  0  0  0
   -1.9236    1.3241   -0.1812 O   0  0  0  0  0  0  0  0  0  0  0  0
    2.3575    0.1742    1.6300 H   0  0  0  0  0  0  0  0  0  0  0  0
    1.9395    0.7501   -0.8249 H   0  0  0  0  0  0  0  0  0  0  0  0
    1.0180   -1.0185   -1.8866 H   0  0  0  0  0  0  0  0  0  0  0  0
    0.9493   -1.9677   -0.3796 H   0  0  0  0  0  0  0  0  0  0  0  0
   -1.4508   -1.0244   -1.3778 H   0  0  0  0  0  0  0  0  0  0  0  0
   -2.1473   -0.5694    0.9320 H   0  0  0  0  0  0  0  0  0  0  0  0
   -0.9603   -1.9719    1.0742 H   0  0  0  0  0  0  0  0  0  0  0  0
    0.5287    1.8154    1.0007 H   0  0  0  0  0  0  0  0  0  0  0  0
   -0.2615    1.3370   -1.4471 H   0  0  0  0  0  0  0  0  0  0  0  0
   -1.9939    2.3032   -0.1342 H   0  0  0  0  0  0  0  0  0  0  0  0
  1  2  1  0
  2  3  1  0
  3  4  1  0
  4  5  1  0
  5  6  1  0
  6  7  1  0
  7  8  1  0
  8  9  1  0
  7  2  1  0
  8  4  1  0
  1 10  1  0
  2 11  1  0
  3 12  1  0
  3 13  1  0
  4 14  1  0
  5 15  1  0
  5 16  1  0
  7 17  1  0
  8 18  1  0
  9 19  1  0
M  END
