
     RDKit          3D

 16 19  0  0  0  0  0  0  0  0999 V2000
    1.8153    1.4634    0.3335 O   0  0  0  0  0  0  0  0  0  0  0  0
    0.9258    0.7407   -0.4230 C   0  0  0  0  0  0  0  0  0  0  0  0
    0.8972   -0.7151    0.0165 C   0  0  0  0  0  0  0  0  0  0  0  0
   -0.3699   -1.2140   -0.4927 C   0  0  0  0  0  0  0  0  0  0  0  0
   -0.1976   -0.8895    0.9515 C   0  0  0  0  0  0  0  0  0  0  0  0
   -1.1186    0.2716    0.7867 C   0  0  0  0  0  0  0  0  0  0  0  0
   -0.5160    1.1445   -0.2144 C   0  0  0  0  0  0  0  0  0  0  0  0
   -1.2723   -0.0427   -0.6364 C   0  0  0  0  0  0  0  0  0  0  0  0
    2.6582    0.9228    0.3865 H   0  0  0  0  0  0  0  0  0  0  0  0
    1.1541    0.7725   -1.5204 H   0  0  0  0  0  0  0  0  0  0  0  0
    1.8267   -1.2842    0.0902 H   0  0  0  0  0  0  0  0  0  0  0  0
   -0.5821   -2.1982   -0.8696 H   0  0  0  0  0  0  0  0  0  0  0  0
   -0.2759   -1.6115    1.7455 H   0  0  0  0  0  0  0  0  0  0  0  0
   -1.9054    0.5195    1.4751 H   0  0  0  0  0  0  0  0  0  0  0  0
   -0.8493    2.1639   -0.4336 H   0  0  0  0  0  0  0  0  0  0  0  0
   -2.1903   -0.0437   -1.1955 H   0  0  0  0  0  0  0  0  0  0  0  0
  1  2  1  0
  2  3  1  0
  3  4  1  0
  4  5  1  0
  5  6  1  0
  6  7  1  0
  7  8  1  0
  7  2  1  0
  5  3  1  0
  8  6  1  0
  8  4  1  0
  1  9  1  0
  2 10  1  0
  3 11  1  0
  4 12  1  0
  5 13  1  0
  6 14  1  0
  7 15  1  0
  8 16  1  0
M  END
