
     RDKit          3D

 21 22  0  0  0  0  0  0  0  0999 V2000
   -1.1444    1.7333   -0.8645 O   0  0  0  0  0  0  0  0  0  0  0  0
   -1.2432    0.3527   -0.7560 C   0  0  0  0  0  0  0  0  0  0  0  0
   -1.9857   -0.0802    0.4706 C   0  0  0  0  0  0  0  0  0  0  0  0
   -1.1265   -1.1947    1.0317 C   0  0  0  0  0  0  0  0  0  0  0  0
    0.2354   -0.6581    0.7052 C   0  0  0  0  0  0  0  0  0  0  0  0
    1.4561   -0.3591    1.1058 C   0  0  0  0  0  0  0  0  0  0  0  0
    2.2722    0.2043   -0.0092 C   0  0  0  0  0  0  0  0  0  0  0  0
    1.2506    0.5802   -1.0739 C   0  0  0  0  0  0  0  0  0  0  0  0
    0.0820   -0.3248   -0.7663 C   0  0  0  0  0  0  0  0  0  0  0  0
   -0.7557    2.1522   -0.0537 H   0  0  0  0  0  0  0  0  0  0  0  0
   -1.8330    0.0013   -1.6380 H   0  0  0  0  0  0  0  0  0  0  0  0
   -2.9813   -0.5112    0.2341 H   0  0  0  0  0  0  0  0  0  0  0  0
   -2.0299    0.7136    1.2453 H   0  0  0  0  0  0  0  0  0  0  0  0
   -1.2378   -1.2883    2.1302 H   0  0  0  0  0  0  0  0  0  0  0  0
   -1.2483   -2.1460    0.4902 H   0  0  0  0  0  0  0  0  0  0  0  0
    1.8031   -0.5114    2.1226 H   0  0  0  0  0  0  0  0  0  0  0  0
    3.0338   -0.4951   -0.3817 H   0  0  0  0  0  0  0  0  0  0  0  0
    2.7444    1.1294    0.3891 H   0  0  0  0  0  0  0  0  0  0  0  0
    0.9901    1.6548   -0.9921 H   0  0  0  0  0  0  0  0  0  0  0  0
    1.5997    0.3260   -2.0936 H   0  0  0  0  0  0  0  0  0  0  0  0
    0.1183   -1.2788   -1.2960 H   0  0  0  0  0  0  0  0  0  0  0  0
  1  2  1  0
  2  3  1  0
  3  4  1  0
  4  5  1  0
  5  6  2  0
  6  7  1  0
  7  8  1  0
  8  9  1  0
  9  2  1  0
  9  5  1  0
  1 10  1  0
  2 11  1  0
  3 12  1  0
  3 13  1  0
  4 14  1  0
  4 15  1  0
  6 16  1  0
  7 17  1  0
  7 18  1  0
  8 19  1  0
  8 20  1  0
  9 21  1  0
M  END
