
     RDKit          3D

 21 22  0  0  0  0  0  0  0  0999 V2000
    3.2492   -0.0030    0.7438 O   0  0  0  0  0  0  0  0  0  0  0  0
    2.1567   -0.2865   -0.0610 C   0  0  0  0  0  0  0  0  0  0  0  0
    0.9882   -0.9247    0.6899 C   0  0  0  0  0  0  0  0  0  0  0  0
    0.1004   -0.1406   -0.2816 C   0  0  0  0  0  0  0  0  0  0  0  0
   -1.1658    0.3793    0.2776 C   0  0  0  0  0  0  0  0  0  0  0  0
   -2.1308   -0.6324    0.8268 C   0  0  0  0  0  0  0  0  0  0  0  0
   -2.9409   -0.5426   -0.3161 O   0  0  0  0  0  0  0  0  0  0  0  0
   -2.2218    0.5194   -0.8171 C   0  0  0  0  0  0  0  0  0  0  0  0
    1.2067    0.9041   -0.2638 C   0  0  0  0  0  0  0  0  0  0  0  0
    3.9422    0.3843    0.1632 H   0  0  0  0  0  0  0  0  0  0  0  0
    2.3511   -0.7446   -1.0293 H   0  0  0  0  0  0  0  0  0  0  0  0
    0.9608   -2.0040    0.5676 H   0  0  0  0  0  0  0  0  0  0  0  0
    0.9267   -0.5142    1.7027 H   0  0  0  0  0  0  0  0  0  0  0  0
    0.0678   -0.6102   -1.2765 H   0  0  0  0  0  0  0  0  0  0  0  0
   -1.0756    1.3212    0.8367 H   0  0  0  0  0  0  0  0  0  0  0  0
   -2.6960   -0.1878    1.6826 H   0  0  0  0  0  0  0  0  0  0  0  0
   -1.7141   -1.6302    1.0241 H   0  0  0  0  0  0  0  0  0  0  0  0
   -1.8442    0.2780   -1.8381 H   0  0  0  0  0  0  0  0  0  0  0  0
   -2.7307    1.4999   -0.8404 H   0  0  0  0  0  0  0  0  0  0  0  0
    1.3663    1.4444   -1.1996 H   0  0  0  0  0  0  0  0  0  0  0  0
    1.2036    1.4901    0.6712 H   0  0  0  0  0  0  0  0  0  0  0  0
  1  2  1  0
  2  3  1  0
  3  4  1  0
  4  5  1  0
  5  6  1  0
  6  7  1  0
  7  8  1  0
  4  9  1  0
  9  2  1  0
  8  5  1  0
  1 10  1  0
  2 11  1  0
  3 12  1  0
  3 13  1  0
  4 14  1  0
  5 15  1  0
  6 16  1  0
  6 17  1  0
  8 18  1  0
  8 19  1  0
  9 20  1  0
  9 21  1  0
M  END
