
     RDKit          3D

 23 23  0  0  0  0  0  0  0  0999 V2000
    2.3843    0.0721   -0.4801 O   0  0  0  0  0  0  0  0  0  0  0  0
    1.5025    0.2037    0.6175 C   0  0  0  0  0  0  0  0  0  0  0  0
    0.7761    1.4696    0.5611 C   0  0  0  0  0  0  0  0  0  0  0  0
   -0.6996    1.3991    0.3244 C   0  0  0  0  0  0  0  0  0  0  0  0
   -1.0958    0.6616   -0.9052 C   0  0  0  0  0  0  0  0  0  0  0  0
   -1.3291   -0.8199   -0.6060 C   0  0  0  0  0  0  0  0  0  0  0  0
   -1.8511   -0.9386    0.6737 O   0  0  0  0  0  0  0  0  0  0  0  0
    0.0668   -1.4545   -0.6072 C   0  0  0  0  0  0  0  0  0  0  0  0
    0.7120   -1.0499    0.6975 C   0  0  0  0  0  0  0  0  0  0  0  0
    1.9624    0.4640   -1.2857 H   0  0  0  0  0  0  0  0  0  0  0  0
    2.1881    0.2174    1.5165 H   0  0  0  0  0  0  0  0  0  0  0  0
    0.9208    2.0836    1.4917 H   0  0  0  0  0  0  0  0  0  0  0  0
    1.2097    2.1130   -0.2581 H   0  0  0  0  0  0  0  0  0  0  0  0
   -1.0429    2.4680    0.1829 H   0  0  0  0  0  0  0  0  0  0  0  0
   -1.2768    1.0236    1.1848 H   0  0  0  0  0  0  0  0  0  0  0  0
   -0.4309    0.8115   -1.7583 H   0  0  0  0  0  0  0  0  0  0  0  0
   -2.1102    1.0501   -1.2125 H   0  0  0  0  0  0  0  0  0  0  0  0
   -2.0041   -1.2938   -1.3170 H   0  0  0  0  0  0  0  0  0  0  0  0
   -1.8135   -1.9105    0.9136 H   0  0  0  0  0  0  0  0  0  0  0  0
    0.5784   -1.0575   -1.4893 H   0  0  0  0  0  0  0  0  0  0  0  0
   -0.0476   -2.5573   -0.6777 H   0  0  0  0  0  0  0  0  0  0  0  0
    1.4420   -1.8782    0.9430 H   0  0  0  0  0  0  0  0  0  0  0  0
   -0.0417   -1.0770    1.4904 H   0  0  0  0  0  0  0  0  0  0  0  0
  1  2  1  0
  2  3  1  0
  3  4  1  0
  4  5  1  0
  5  6  1  0
  6  7  1  0
  6  8  1  0
  8  9  1  0
  9  2  1  0
  1 10  1  0
  2 11  1  0
  3 12  1  0
  3 13  1  0
  4 14  1  0
  4 15  1  0
  5 16  1  0
  5 17  1  0
  6 18  1  0
  7 19  1  0
  8 20  1  0
  8 21  1  0
  9 22  1  0
  9 23  1  0
M  END
