
     RDKit          3D

 18 18  0  0  0  0  0  0  0  0999 V2000
    2.0049   -1.0960   -0.3777 O   0  0  0  0  0  0  0  0  0  0  0  0
    1.1276   -0.2878    0.3007 C   0  0  0  0  0  0  0  0  0  0  0  0
    0.8638    1.0323   -0.4095 C   0  0  0  0  0  0  0  0  0  0  0  0
   -0.4930    1.3832    0.2218 C   0  0  0  0  0  0  0  0  0  0  0  0
   -1.2234    0.0893   -0.1484 C   0  0  0  0  0  0  0  0  0  0  0  0
   -2.4775    0.0135    0.3723 O   0  0  0  0  0  0  0  0  0  0  0  0
   -0.2540   -0.9278    0.4568 C   0  0  0  0  0  0  0  0  0  0  0  0
   -0.3427   -2.1447   -0.1678 O   0  0  0  0  0  0  0  0  0  0  0  0
    2.9185   -0.9172   -0.0194 H   0  0  0  0  0  0  0  0  0  0  0  0
    1.4813   -0.0237    1.3319 H   0  0  0  0  0  0  0  0  0  0  0  0
    0.6672    0.7917   -1.4702 H   0  0  0  0  0  0  0  0  0  0  0  0
    1.6177    1.7857   -0.2295 H   0  0  0  0  0  0  0  0  0  0  0  0
   -0.9419    2.2663   -0.2142 H   0  0  0  0  0  0  0  0  0  0  0  0
   -0.3579    1.4023    1.3165 H   0  0  0  0  0  0  0  0  0  0  0  0
   -1.1472    0.0024   -1.2414 H   0  0  0  0  0  0  0  0  0  0  0  0
   -3.1868   -0.1868   -0.2978 H   0  0  0  0  0  0  0  0  0  0  0  0
   -0.5189   -1.0587    1.5312 H   0  0  0  0  0  0  0  0  0  0  0  0
    0.2623   -2.1239   -0.9551 H   0  0  0  0  0  0  0  0  0  0  0  0
  1  2  1  0
  2  3  1  0
  3  4  1  0
  4  5  1  0
  5  6  1  0
  5  7  1  0
  7  8  1  0
  7  2  1  0
  1  9  1  0
  2 10  1  0
  3 11  1  0
  3 12  1  0
  4 13  1  0
  4 14  1  0
  5 15  1  0
  6 16  1  0
  7 17  1  0
  8 18  1  0
M  END
