
     RDKit          3D

 15 17  0  0  0  0  0  0  0  0999 V2000
    2.5357    0.5397    0.7439 O   0  0  0  0  0  0  0  0  0  0  0  0
    1.2002    0.1575    0.7015 C   0  0  0  0  0  0  0  0  0  0  0  0
    0.6298   -0.5824   -0.4296 C   0  0  0  0  0  0  0  0  0  0  0  0
   -0.8128   -0.9161   -0.3871 C   0  0  0  0  0  0  0  0  0  0  0  0
   -1.7359   -0.2745    0.5614 C   0  0  0  0  0  0  0  0  0  0  0  0
   -1.0975    0.6137   -0.4372 C   0  0  0  0  0  0  0  0  0  0  0  0
    0.3465    0.9243   -0.2239 C   0  0  0  0  0  0  0  0  0  0  0  0
    3.1647   -0.1613    0.4955 H   0  0  0  0  0  0  0  0  0  0  0  0
    0.7901   -0.0666    1.7162 H   0  0  0  0  0  0  0  0  0  0  0  0
    1.1962   -0.8761   -1.3250 H   0  0  0  0  0  0  0  0  0  0  0  0
   -1.2166   -1.4726   -1.2465 H   0  0  0  0  0  0  0  0  0  0  0  0
   -2.8080   -0.4184    0.4719 H   0  0  0  0  0  0  0  0  0  0  0  0
   -1.4055   -0.0900    1.6194 H   0  0  0  0  0  0  0  0  0  0  0  0
   -1.6048    0.9990   -1.3192 H   0  0  0  0  0  0  0  0  0  0  0  0
    0.8179    1.6238   -0.9414 H   0  0  0  0  0  0  0  0  0  0  0  0
  1  2  1  0
  2  3  1  0
  3  4  1  0
  4  5  1  0
  5  6  1  0
  6  7  1  0
  7  2  1  0
  7  3  1  0
  6  4  1  0
  1  8  1  0
  2  9  1  0
  3 10  1  0
  4 11  1  0
  5 12  1  0
  5 13  1  0
  6 14  1  0
  7 15  1  0
M  END
