
     RDKit          3D

 20 21  0  0  0  0  0  0  0  0999 V2000
   -0.6214    1.7561   -1.0876 O   0  0  0  0  0  0  0  0  0  0  0  0
   -0.5683    0.9746    0.0560 C   0  0  0  0  0  0  0  0  0  0  0  0
   -1.7805    0.0776    0.0832 C   0  0  0  0  0  0  0  0  0  0  0  0
   -1.2888   -1.3383    0.1801 C   0  0  0  0  0  0  0  0  0  0  0  0
    0.1733   -1.2937   -0.1490 C   0  0  0  0  0  0  0  0  0  0  0  0
    0.6449    0.1172    0.1001 C   0  0  0  0  0  0  0  0  0  0  0  0
    1.8192    0.4124    0.9373 C   0  0  0  0  0  0  0  0  0  0  0  0
    1.9154    0.4795   -0.5657 C   0  0  0  0  0  0  0  0  0  0  0  0
   -1.5818    1.9597   -1.2744 H   0  0  0  0  0  0  0  0  0  0  0  0
   -0.6588    1.6513    0.9496 H   0  0  0  0  0  0  0  0  0  0  0  0
   -2.3506    0.1564   -0.8757 H   0  0  0  0  0  0  0  0  0  0  0  0
   -2.4391    0.2687    0.9612 H   0  0  0  0  0  0  0  0  0  0  0  0
   -1.3856   -1.7690    1.1990 H   0  0  0  0  0  0  0  0  0  0  0  0
   -1.7705   -2.0208   -0.5608 H   0  0  0  0  0  0  0  0  0  0  0  0
    0.3134   -1.4738   -1.2537 H   0  0  0  0  0  0  0  0  0  0  0  0
    0.7961   -1.9666    0.4539 H   0  0  0  0  0  0  0  0  0  0  0  0
    2.2523   -0.4555    1.4811 H   0  0  0  0  0  0  0  0  0  0  0  0
    1.8948    1.3878    1.4331 H   0  0  0  0  0  0  0  0  0  0  0  0
    2.0803    1.4265   -1.0823 H   0  0  0  0  0  0  0  0  0  0  0  0
    2.5556   -0.3501   -0.9853 H   0  0  0  0  0  0  0  0  0  0  0  0
  1  2  1  0
  2  3  1  0
  3  4  1  0
  4  5  1  0
  5  6  1  0
  6  7  1  0
  7  8  1  0
  6  2  1  0
  8  6  1  0
  1  9  1  0
  2 10  1  0
  3 11  1  0
  3 12  1  0
  4 13  1  0
  4 14  1  0
  5 15  1  0
  5 16  1  0
  7 17  1  0
  7 18  1  0
  8 19  1  0
  8 20  1  0
M  END
