
     RDKit          3D

 20 20  0  0  0  0  0  0  0  0999 V2000
    2.7559   -0.1040    0.4281 O   0  0  0  0  0  0  0  0  0  0  0  0
    1.4886   -0.0637   -0.1376 C   0  0  0  0  0  0  0  0  0  0  0  0
    0.6813    1.1007    0.4478 C   0  0  0  0  0  0  0  0  0  0  0  0
   -0.5524    1.2362   -0.3899 C   0  0  0  0  0  0  0  0  0  0  0  0
   -1.6971    0.3936    0.0711 C   0  0  0  0  0  0  0  0  0  0  0  0
   -1.5644   -1.0585   -0.2747 C   0  0  0  0  0  0  0  0  0  0  0  0
   -0.3184   -1.4122   -0.7497 O   0  0  0  0  0  0  0  0  0  0  0  0
    0.6804   -1.3201    0.2136 C   0  0  0  0  0  0  0  0  0  0  0  0
    3.4442    0.0962   -0.2673 H   0  0  0  0  0  0  0  0  0  0  0  0
    1.5045    0.0299   -1.2306 H   0  0  0  0  0  0  0  0  0  0  0  0
    0.4523    0.7988    1.4923 H   0  0  0  0  0  0  0  0  0  0  0  0
    1.3167    1.9946    0.3761 H   0  0  0  0  0  0  0  0  0  0  0  0
   -0.3031    1.0579   -1.4421 H   0  0  0  0  0  0  0  0  0  0  0  0
   -0.8867    2.3076   -0.3285 H   0  0  0  0  0  0  0  0  0  0  0  0
   -1.8579    0.5668    1.1643 H   0  0  0  0  0  0  0  0  0  0  0  0
   -2.6292    0.7954   -0.4166 H   0  0  0  0  0  0  0  0  0  0  0  0
   -2.3020   -1.3467   -1.0687 H   0  0  0  0  0  0  0  0  0  0  0  0
   -1.8149   -1.6558    0.6409 H   0  0  0  0  0  0  0  0  0  0  0  0
    1.3577   -2.1833    0.2295 H   0  0  0  0  0  0  0  0  0  0  0  0
    0.2445   -1.2335    1.2418 H   0  0  0  0  0  0  0  0  0  0  0  0
  1  2  1  0
  2  3  1  0
  3  4  1  0
  4  5  1  0
  5  6  1  0
  6  7  1  0
  7  8  1  0
  8  2  1  0
  1  9  1  0
  2 10  1  0
  3 11  1  0
  3 12  1  0
  4 13  1  0
  4 14  1  0
  5 15  1  0
  5 16  1  0
  6 17  1  0
  6 18  1  0
  8 19  1  0
  8 20  1  0
M  END
