
     RDKit          3D

 21 22  0  0  0  0  0  0  0  0999 V2000
   -1.9282   -1.6256   -0.3401 O   0  0  0  0  0  0  0  0  0  0  0  0
   -0.8549   -0.8190   -0.7227 C   0  0  0  0  0  0  0  0  0  0  0  0
   -1.1605    0.6377   -0.5619 C   0  0  0  0  0  0  0  0  0  0  0  0
   -0.0436    1.4496   -0.0092 C   0  0  0  0  0  0  0  0  0  0  0  0
   -0.4772    1.9780    1.2300 O   0  0  0  0  0  0  0  0  0  0  0  0
    1.2003    0.6579    0.2820 C   0  0  0  0  0  0  0  0  0  0  0  0
    0.7651   -0.5140    1.1739 C   0  0  0  0  0  0  0  0  0  0  0  0
    0.4436   -1.2358   -0.0981 C   0  0  0  0  0  0  0  0  0  0  0  0
    1.5150   -0.3667   -0.7748 C   0  0  0  0  0  0  0  0  0  0  0  0
   -2.0154   -1.6546    0.6374 H   0  0  0  0  0  0  0  0  0  0  0  0
   -0.7350   -0.9993   -1.8320 H   0  0  0  0  0  0  0  0  0  0  0  0
   -2.0947    0.7008    0.0701 H   0  0  0  0  0  0  0  0  0  0  0  0
   -1.4743    1.1128   -1.5378 H   0  0  0  0  0  0  0  0  0  0  0  0
    0.2024    2.3290   -0.6358 H   0  0  0  0  0  0  0  0  0  0  0  0
   -1.2955    1.5164    1.5420 H   0  0  0  0  0  0  0  0  0  0  0  0
    2.0133    1.2580    0.6641 H   0  0  0  0  0  0  0  0  0  0  0  0
   -0.0515   -0.2405    1.8313 H   0  0  0  0  0  0  0  0  0  0  0  0
    1.6454   -0.9691    1.6615 H   0  0  0  0  0  0  0  0  0  0  0  0
    0.6124   -2.3019   -0.1439 H   0  0  0  0  0  0  0  0  0  0  0  0
    1.2393   -0.0980   -1.8104 H   0  0  0  0  0  0  0  0  0  0  0  0
    2.4940   -0.8159   -0.6256 H   0  0  0  0  0  0  0  0  0  0  0  0
  1  2  1  0
  2  3  1  0
  3  4  1  0
  4  5  1  0
  4  6  1  0
  6  7  1  0
  7  8  1  0
  8  9  1  0
  8  2  1  0
  9  6  1  0
  1 10  1  0
  2 11  1  0
  3 12  1  0
  3 13  1  0
  4 14  1  0
  5 15  1  0
  6 16  1  0
  7 17  1  0
  7 18  1  0
  8 19  1  0
  9 20  1  0
  9 21  1  0
M  END
