
     RDKit          3D

 19 20  0  0  0  0  0  0  0  0999 V2000
    2.0251    1.1515   -0.2113 O   0  0  0  0  0  0  0  0  0  0  0  0
    1.0427    0.3621   -0.7407 C   0  0  0  0  0  0  0  0  0  0  0  0
    1.0462   -1.0548   -0.1751 C   0  0  0  0  0  0  0  0  0  0  0  0
   -0.3676   -1.2984    0.2878 C   0  0  0  0  0  0  0  0  0  0  0  0
   -0.5515   -0.4888    1.5217 C   0  0  0  0  0  0  0  0  0  0  0  0
   -0.4278    0.7799    1.1387 C   0  0  0  0  0  0  0  0  0  0  0  0
   -0.3129    0.8472   -0.3562 C   0  0  0  0  0  0  0  0  0  0  0  0
   -0.7574    1.9731   -0.9188 O   0  0  0  0  0  0  0  0  0  0  0  0
   -1.1336   -0.4089   -0.7071 C   0  0  0  0  0  0  0  0  0  0  0  0
    1.8376    1.3192    0.7411 H   0  0  0  0  0  0  0  0  0  0  0  0
    1.1608    0.2603   -1.8384 H   0  0  0  0  0  0  0  0  0  0  0  0
    1.7428   -1.0203    0.6992 H   0  0  0  0  0  0  0  0  0  0  0  0
    1.4174   -1.7914   -0.8880 H   0  0  0  0  0  0  0  0  0  0  0  0
   -0.6975   -2.3049    0.3234 H   0  0  0  0  0  0  0  0  0  0  0  0
   -0.7428   -0.9353    2.4872 H   0  0  0  0  0  0  0  0  0  0  0  0
   -0.4171    1.6009    1.8357 H   0  0  0  0  0  0  0  0  0  0  0  0
   -1.7203    2.0349   -1.0605 H   0  0  0  0  0  0  0  0  0  0  0  0
   -2.1756   -0.3101   -0.3969 H   0  0  0  0  0  0  0  0  0  0  0  0
   -0.9686   -0.7163   -1.7418 H   0  0  0  0  0  0  0  0  0  0  0  0
  1  2  1  0
  2  3  1  0
  3  4  1  0
  4  5  1  0
  5  6  2  0
  6  7  1  0
  7  8  1  0
  7  9  1  0
  7  2  1  0
  9  4  1  0
  1 10  1  0
  2 11  1  0
  3 12  1  0
  3 13  1  0
  4 14  1  0
  5 15  1  0
  6 16  1  0
  8 17  1  0
  9 18  1  0
  9 19  1  0
M  END
