
     RDKit          3D

 21 22  0  0  0  0  0  0  0  0999 V2000
   -1.4446   -0.6846   -1.5173 O   0  0  0  0  0  0  0  0  0  0  0  0
   -1.2801   -0.8719   -0.1531 C   0  0  0  0  0  0  0  0  0  0  0  0
   -1.6065    0.3262    0.6624 C   0  0  0  0  0  0  0  0  0  0  0  0
   -0.8431    1.5330    0.4120 C   0  0  0  0  0  0  0  0  0  0  0  0
    0.3659    1.6684   -0.0944 C   0  0  0  0  0  0  0  0  0  0  0  0
    1.3485    0.7298   -0.5712 C   0  0  0  0  0  0  0  0  0  0  0  0
    2.2492   -0.0152    0.3786 C   0  0  0  0  0  0  0  0  0  0  0  0
    1.1879   -0.6837   -0.5430 C   0  0  0  0  0  0  0  0  0  0  0  0
    0.1135   -1.3491    0.1940 C   0  0  0  0  0  0  0  0  0  0  0  0
   -2.4037   -0.8115   -1.7178 H   0  0  0  0  0  0  0  0  0  0  0  0
   -1.9763   -1.6842    0.1485 H   0  0  0  0  0  0  0  0  0  0  0  0
   -2.6954    0.5822    0.4965 H   0  0  0  0  0  0  0  0  0  0  0  0
   -1.5933   -0.0074    1.7403 H   0  0  0  0  0  0  0  0  0  0  0  0
   -1.3313    2.5017    0.6784 H   0  0  0  0  0  0  0  0  0  0  0  0
    0.7249    2.7272   -0.1763 H   0  0  0  0  0  0  0  0  0  0  0  0
    1.9523    1.1335   -1.4518 H   0  0  0  0  0  0  0  0  0  0  0  0
    1.9897    0.1178    1.4349 H   0  0  0  0  0  0  0  0  0  0  0  0
    3.2878   -0.2271    0.1363 H   0  0  0  0  0  0  0  0  0  0  0  0
    1.6304   -1.2922   -1.3796 H   0  0  0  0  0  0  0  0  0  0  0  0
    0.1902   -1.2504    1.3132 H   0  0  0  0  0  0  0  0  0  0  0  0
    0.1340   -2.4423    0.0096 H   0  0  0  0  0  0  0  0  0  0  0  0
  1  2  1  0
  2  3  1  0
  3  4  1  0
  4  5  2  0
  5  6  1  0
  6  7  1  0
  7  8  1  0
  8  9  1  0
  9  2  1  0
  8  6  1  0
  1 10  1  0
  2 11  1  0
  3 12  1  0
  3 13  1  0
  4 14  1  0
  5 15  1  0
  6 16  1  0
  7 17  1  0
  7 18  1  0
  8 19  1  0
  9 20  1  0
  9 21  1  0
M  END
