
     RDKit          3D

 19 21  0  0  0  0  0  0  0  0999 V2000
   -2.2698    1.2292   -0.4666 O   0  0  0  0  0  0  0  0  0  0  0  0
   -0.9375    0.9852   -0.1984 C   0  0  0  0  0  0  0  0  0  0  0  0
   -0.4490   -0.1657   -1.0760 C   0  0  0  0  0  0  0  0  0  0  0  0
   -1.3163   -1.0302   -0.1438 C   0  0  0  0  0  0  0  0  0  0  0  0
   -0.7823   -0.0481    0.9120 C   0  0  0  0  0  0  0  0  0  0  0  0
    0.6633   -0.4352    0.9473 C   0  0  0  0  0  0  0  0  0  0  0  0
    1.7181    0.3419    0.2822 C   0  0  0  0  0  0  0  0  0  0  0  0
    3.0257   -0.1090    0.5267 O   0  0  0  0  0  0  0  0  0  0  0  0
    0.9207   -0.5046   -0.6037 C   0  0  0  0  0  0  0  0  0  0  0  0
   -2.3083    1.7755   -1.2895 H   0  0  0  0  0  0  0  0  0  0  0  0
   -0.2969    1.8530   -0.1447 H   0  0  0  0  0  0  0  0  0  0  0  0
   -0.7012   -0.1563   -2.1054 H   0  0  0  0  0  0  0  0  0  0  0  0
   -2.3977   -0.9290   -0.3173 H   0  0  0  0  0  0  0  0  0  0  0  0
   -0.9239   -2.0373    0.0330 H   0  0  0  0  0  0  0  0  0  0  0  0
   -1.3418    0.0695    1.7991 H   0  0  0  0  0  0  0  0  0  0  0  0
    0.8658   -1.3855    1.4763 H   0  0  0  0  0  0  0  0  0  0  0  0
    1.6401    1.4394    0.3366 H   0  0  0  0  0  0  0  0  0  0  0  0
    3.5540    0.5500    1.0081 H   0  0  0  0  0  0  0  0  0  0  0  0
    1.3371   -1.4428   -0.9760 H   0  0  0  0  0  0  0  0  0  0  0  0
  1  2  1  0
  2  3  1  0
  3  4  1  0
  4  5  1  0
  5  6  1  0
  6  7  1  0
  7  8  1  0
  7  9  1  0
  5  2  1  0
  9  6  1  0
  9  3  1  0
  1 10  1  0
  2 11  1  0
  3 12  1  0
  4 13  1  0
  4 14  1  0
  5 15  1  0
  6 16  1  0
  7 17  1  0
  8 18  1  0
  9 19  1  0
M  END
