
     RDKit          3D

 19 20  0  0  0  0  0  0  0  0999 V2000
    1.3657   -0.9726   -1.3413 O   0  0  0  0  0  0  0  0  0  0  0  0
    1.2470   -0.6881    0.0363 C   0  0  0  0  0  0  0  0  0  0  0  0
    1.5864    0.7424    0.1976 C   0  0  0  0  0  0  0  0  0  0  0  0
    0.6314    1.6231   -0.0743 C   0  0  0  0  0  0  0  0  0  0  0  0
   -0.6799    1.0703   -0.5129 C   0  0  0  0  0  0  0  0  0  0  0  0
   -1.0850   -0.0534    0.4088 C   0  0  0  0  0  0  0  0  0  0  0  0
   -1.8391    0.2579    1.5429 O   0  0  0  0  0  0  0  0  0  0  0  0
   -1.2406   -1.4118   -0.2199 C   0  0  0  0  0  0  0  0  0  0  0  0
   -0.0550   -1.0987    0.6030 C   0  0  0  0  0  0  0  0  0  0  0  0
    2.1825   -0.4677   -1.6296 H   0  0  0  0  0  0  0  0  0  0  0  0
    2.0892   -1.2691    0.5126 H   0  0  0  0  0  0  0  0  0  0  0  0
    2.5506    1.0975    0.5183 H   0  0  0  0  0  0  0  0  0  0  0  0
    0.7954    2.6781    0.0170 H   0  0  0  0  0  0  0  0  0  0  0  0
   -0.5207    0.6709   -1.5397 H   0  0  0  0  0  0  0  0  0  0  0  0
   -1.4631    1.8427   -0.4738 H   0  0  0  0  0  0  0  0  0  0  0  0
   -2.3624    1.1035    1.4093 H   0  0  0  0  0  0  0  0  0  0  0  0
   -2.0193   -2.0368    0.2549 H   0  0  0  0  0  0  0  0  0  0  0  0
   -1.1984   -1.4918   -1.3237 H   0  0  0  0  0  0  0  0  0  0  0  0
    0.0155   -1.5966    1.6144 H   0  0  0  0  0  0  0  0  0  0  0  0
  1  2  1  0
  2  3  1  0
  3  4  2  0
  4  5  1  0
  5  6  1  0
  6  7  1  0
  6  8  1  0
  8  9  1  0
  9  2  1  0
  9  6  1  0
  1 10  1  0
  2 11  1  0
  3 12  1  0
  4 13  1  0
  5 14  1  0
  5 15  1  0
  7 16  1  0
  8 17  1  0
  8 18  1  0
  9 19  1  0
M  END
