
     RDKit          3D

 21 23  0  0  0  0  0  0  0  0999 V2000
   -1.7375    2.0048    0.1378 O   0  0  0  0  0  0  0  0  0  0  0  0
   -0.5586    1.3648   -0.2267 C   0  0  0  0  0  0  0  0  0  0  0  0
   -0.5247   -0.0100   -0.7182 C   0  0  0  0  0  0  0  0  0  0  0  0
    0.7349   -0.5143   -1.3271 C   0  0  0  0  0  0  0  0  0  0  0  0
    1.8471    0.1135   -0.5180 C   0  0  0  0  0  0  0  0  0  0  0  0
    1.2937   -0.0337    0.8883 C   0  0  0  0  0  0  0  0  0  0  0  0
   -0.1565    0.2553    0.7111 C   0  0  0  0  0  0  0  0  0  0  0  0
   -1.2099   -0.7189    1.1369 C   0  0  0  0  0  0  0  0  0  0  0  0
   -1.5524   -1.0222   -0.3040 C   0  0  0  0  0  0  0  0  0  0  0  0
   -1.4674    2.6480    0.8692 H   0  0  0  0  0  0  0  0  0  0  0  0
    0.2232    2.0486   -0.5791 H   0  0  0  0  0  0  0  0  0  0  0  0
    0.8461   -0.2724   -2.3862 H   0  0  0  0  0  0  0  0  0  0  0  0
    0.8023   -1.6295   -1.1727 H   0  0  0  0  0  0  0  0  0  0  0  0
    2.8097   -0.4324   -0.6153 H   0  0  0  0  0  0  0  0  0  0  0  0
    2.0452    1.1561   -0.7952 H   0  0  0  0  0  0  0  0  0  0  0  0
    1.4366   -1.1027    1.1728 H   0  0  0  0  0  0  0  0  0  0  0  0
    1.7876    0.6604    1.5902 H   0  0  0  0  0  0  0  0  0  0  0  0
   -0.7570   -1.5493    1.7073 H   0  0  0  0  0  0  0  0  0  0  0  0
   -1.9960   -0.2113    1.7152 H   0  0  0  0  0  0  0  0  0  0  0  0
   -2.5552   -0.7114   -0.6368 H   0  0  0  0  0  0  0  0  0  0  0  0
   -1.3113   -2.0435   -0.6494 H   0  0  0  0  0  0  0  0  0  0  0  0
  1  2  1  0
  2  3  1  0
  3  4  1  0
  4  5  1  0
  5  6  1  0
  6  7  1  0
  7  8  1  0
  8  9  1  0
  7  2  1  0
  7  3  1  0
  9  3  1  0
  1 10  1  0
  2 11  1  0
  4 12  1  0
  4 13  1  0
  5 14  1  0
  5 15  1  0
  6 16  1  0
  6 17  1  0
  8 18  1  0
  8 19  1  0
  9 20  1  0
  9 21  1  0
M  END
