
     RDKit          3D

 19 21  0  0  0  0  0  0  0  0999 V2000
    2.1151    1.3146    0.4586 O   0  0  0  0  0  0  0  0  0  0  0  0
    1.3570    0.3362   -0.1350 C   0  0  0  0  0  0  0  0  0  0  0  0
    0.8067   -0.6687    0.8918 C   0  0  0  0  0  0  0  0  0  0  0  0
   -0.0125   -1.5364   -0.0492 C   0  0  0  0  0  0  0  0  0  0  0  0
   -0.7368   -0.4534   -0.8513 C   0  0  0  0  0  0  0  0  0  0  0  0
   -1.8451    0.1127    0.0098 C   0  0  0  0  0  0  0  0  0  0  0  0
   -0.7323    0.9221    0.6964 C   0  0  0  0  0  0  0  0  0  0  0  0
   -0.0452    0.1485    1.6177 O   0  0  0  0  0  0  0  0  0  0  0  0
    0.0082    0.8214   -0.6152 C   0  0  0  0  0  0  0  0  0  0  0  0
    2.6943    1.7085   -0.2627 H   0  0  0  0  0  0  0  0  0  0  0  0
    1.8582   -0.1913   -0.9544 H   0  0  0  0  0  0  0  0  0  0  0  0
    1.5630   -1.1774    1.4466 H   0  0  0  0  0  0  0  0  0  0  0  0
   -0.7088   -2.1505    0.5387 H   0  0  0  0  0  0  0  0  0  0  0  0
    0.6027   -2.1598   -0.6934 H   0  0  0  0  0  0  0  0  0  0  0  0
   -0.9651   -0.6852   -1.8761 H   0  0  0  0  0  0  0  0  0  0  0  0
   -2.4987    0.7488   -0.5978 H   0  0  0  0  0  0  0  0  0  0  0  0
   -2.3412   -0.6077    0.6845 H   0  0  0  0  0  0  0  0  0  0  0  0
   -1.0744    1.8999    1.0048 H   0  0  0  0  0  0  0  0  0  0  0  0
   -0.0450    1.6177   -1.3137 H   0  0  0  0  0  0  0  0  0  0  0  0
  1  2  1  0
  2  3  1  0
  3  4  1  0
  4  5  1  0
  5  6  1  0
  6  7  1  0
  7  8  1  0
  7  9  1  0
  9  2  1  0
  8  3  1  0
  9  5  1  0
  1 10  1  0
  2 11  1  0
  3 12  1  0
  4 13  1  0
  4 14  1  0
  5 15  1  0
  6 16  1  0
  6 17  1  0
  7 18  1  0
  9 19  1  0
M  END
