
     RDKit          3D

 19 19  0  0  0  0  0  0  0  0999 V2000
    2.4805    0.5616   -0.3667 O   0  0  0  0  0  0  0  0  0  0  0  0
    1.1734    0.1509   -0.6336 C   0  0  0  0  0  0  0  0  0  0  0  0
    1.0863   -1.2785   -0.2744 C   0  0  0  0  0  0  0  0  0  0  0  0
   -0.0703   -1.8386    0.0580 C   0  0  0  0  0  0  0  0  0  0  0  0
   -1.2567   -0.9634    0.0497 C   0  0  0  0  0  0  0  0  0  0  0  0
   -1.0076    0.4140    0.5953 C   0  0  0  0  0  0  0  0  0  0  0  0
   -2.1195    1.2038    0.3037 O   0  0  0  0  0  0  0  0  0  0  0  0
    0.2670    1.0325    0.1826 C   0  0  0  0  0  0  0  0  0  0  0  0
   -0.0343    2.1461   -0.6284 O   0  0  0  0  0  0  0  0  0  0  0  0
    2.7378    0.1064    0.4855 H   0  0  0  0  0  0  0  0  0  0  0  0
    1.0290    0.3104   -1.7379 H   0  0  0  0  0  0  0  0  0  0  0  0
    1.9831   -1.8884   -0.2818 H   0  0  0  0  0  0  0  0  0  0  0  0
   -0.1367   -2.9077    0.3270 H   0  0  0  0  0  0  0  0  0  0  0  0
   -2.0680   -1.4962    0.5640 H   0  0  0  0  0  0  0  0  0  0  0  0
   -1.5790   -0.8621   -1.0281 H   0  0  0  0  0  0  0  0  0  0  0  0
   -1.0015    0.3078    1.7204 H   0  0  0  0  0  0  0  0  0  0  0  0
   -2.8922    0.6304    0.0676 H   0  0  0  0  0  0  0  0  0  0  0  0
    0.8214    1.4714    1.0588 H   0  0  0  0  0  0  0  0  0  0  0  0
    0.5870    2.8998   -0.4618 H   0  0  0  0  0  0  0  0  0  0  0  0
  1  2  1  0
  2  3  1  0
  3  4  2  0
  4  5  1  0
  5  6  1  0
  6  7  1  0
  6  8  1  0
  8  9  1  0
  8  2  1  0
  1 10  1  0
  2 11  1  0
  3 12  1  0
  4 13  1  0
  5 14  1  0
  5 15  1  0
  6 16  1  0
  7 17  1  0
  8 18  1  0
  9 19  1  0
M  END
