
     RDKit          3D

 18 19  0  0  0  0  0  0  0  0999 V2000
    2.2643   -0.2650    1.4060 O   0  0  0  0  0  0  0  0  0  0  0  0
    1.6473   -0.4984    0.1544 C   0  0  0  0  0  0  0  0  0  0  0  0
    1.1449    0.7617   -0.5707 C   0  0  0  0  0  0  0  0  0  0  0  0
    0.2386   -0.3138    0.0714 C   0  0  0  0  0  0  0  0  0  0  0  0
   -0.6750    0.2056    1.1193 C   0  0  0  0  0  0  0  0  0  0  0  0
   -1.8220    0.6779    0.2481 C   0  0  0  0  0  0  0  0  0  0  0  0
   -1.8268   -0.0294   -0.8731 C   0  0  0  0  0  0  0  0  0  0  0  0
   -0.7140   -1.0135   -0.8564 C   0  0  0  0  0  0  0  0  0  0  0  0
    2.9476    0.4546    1.2601 H   0  0  0  0  0  0  0  0  0  0  0  0
    2.1637   -1.1963   -0.5048 H   0  0  0  0  0  0  0  0  0  0  0  0
    1.2676    1.7065   -0.0098 H   0  0  0  0  0  0  0  0  0  0  0  0
    1.1312    0.7773   -1.6575 H   0  0  0  0  0  0  0  0  0  0  0  0
   -0.2819    1.0053    1.7455 H   0  0  0  0  0  0  0  0  0  0  0  0
   -1.0667   -0.6655    1.7013 H   0  0  0  0  0  0  0  0  0  0  0  0
   -2.4888    1.4723    0.5605 H   0  0  0  0  0  0  0  0  0  0  0  0
   -2.5362    0.0993   -1.6694 H   0  0  0  0  0  0  0  0  0  0  0  0
   -1.0833   -1.9223   -0.2972 H   0  0  0  0  0  0  0  0  0  0  0  0
   -0.3106   -1.2562   -1.8279 H   0  0  0  0  0  0  0  0  0  0  0  0
  1  2  1  0
  2  3  1  0
  3  4  1  0
  4  5  1  0
  5  6  1  0
  6  7  2  0
  7  8  1  0
  4  2  1  0
  8  4  1  0
  1  9  1  0
  2 10  1  0
  3 11  1  0
  3 12  1  0
  5 13  1  0
  5 14  1  0
  6 15  1  0
  7 16  1  0
  8 17  1  0
  8 18  1  0
M  END
