
     RDKit          3D

 20 21  0  0  0  0  0  0  0  0999 V2000
    2.7388   -0.8514    0.3125 O   0  0  0  0  0  0  0  0  0  0  0  0
    2.2019   -0.2412   -0.8237 C   0  0  0  0  0  0  0  0  0  0  0  0
    1.9322    1.2224   -0.6955 C   0  0  0  0  0  0  0  0  0  0  0  0
    0.7871    0.2050   -0.8386 C   0  0  0  0  0  0  0  0  0  0  0  0
   -0.0296   -0.1047    0.3910 C   0  0  0  0  0  0  0  0  0  0  0  0
   -1.4346    0.3656    0.3169 C   0  0  0  0  0  0  0  0  0  0  0  0
   -2.3909   -0.0757   -0.7041 C   0  0  0  0  0  0  0  0  0  0  0  0
   -2.4909   -0.6586    0.6844 C   0  0  0  0  0  0  0  0  0  0  0  0
    3.5110   -1.4302    0.0888 H   0  0  0  0  0  0  0  0  0  0  0  0
    2.6949   -0.5483   -1.7700 H   0  0  0  0  0  0  0  0  0  0  0  0
    2.1128    1.9040   -1.5537 H   0  0  0  0  0  0  0  0  0  0  0  0
    2.0795    1.6883    0.2978 H   0  0  0  0  0  0  0  0  0  0  0  0
    0.3011    0.1791   -1.8379 H   0  0  0  0  0  0  0  0  0  0  0  0
    0.4717    0.4165    1.2560 H   0  0  0  0  0  0  0  0  0  0  0  0
    0.0109   -1.1800    0.6364 H   0  0  0  0  0  0  0  0  0  0  0  0
   -1.6547    1.3788    0.7654 H   0  0  0  0  0  0  0  0  0  0  0  0
   -2.1543   -0.8166   -1.4876 H   0  0  0  0  0  0  0  0  0  0  0  0
   -3.2018    0.6332   -1.0358 H   0  0  0  0  0  0  0  0  0  0  0  0
   -2.1612   -1.7163    0.8438 H   0  0  0  0  0  0  0  0  0  0  0  0
   -3.3238   -0.3700    1.3500 H   0  0  0  0  0  0  0  0  0  0  0  0
  1  2  1  0
  2  3  1  0
  3  4  1  0
  4  5  1  0
  5  6  1  0
  6  7  1  0
  7  8  1  0
  4  2  1  0
  8  6  1  0
  1  9  1  0
  2 10  1  0
  3 11  1  0
  3 12  1  0
  4 13  1  0
  5 14  1  0
  5 15  1  0
  6 16  1  0
  7 17  1  0
  7 18  1  0
  8 19  1  0
  8 20  1  0
M  END
