
     RDKit          3D

 19 21  0  0  0  0  0  0  0  0999 V2000
    2.5528   -0.0430   -0.0444 O   0  0  0  0  0  0  0  0  0  0  0  0
    1.1773   -0.0658   -0.2511 C   0  0  0  0  0  0  0  0  0  0  0  0
    0.5937   -1.4544   -0.0050 C   0  0  0  0  0  0  0  0  0  0  0  0
   -0.8509   -1.3909   -0.4779 C   0  0  0  0  0  0  0  0  0  0  0  0
   -1.7799   -1.5810    0.5260 O   0  0  0  0  0  0  0  0  0  0  0  0
   -1.6304   -0.3071    0.0456 C   0  0  0  0  0  0  0  0  0  0  0  0
   -0.9437    0.7649    0.8098 C   0  0  0  0  0  0  0  0  0  0  0  0
   -0.4692    1.9292   -0.0590 C   0  0  0  0  0  0  0  0  0  0  0  0
    0.4866    0.9203    0.6193 C   0  0  0  0  0  0  0  0  0  0  0  0
    3.0262   -0.5515   -0.7398 H   0  0  0  0  0  0  0  0  0  0  0  0
    0.9621    0.1537   -1.3293 H   0  0  0  0  0  0  0  0  0  0  0  0
    1.1424   -2.2095   -0.5941 H   0  0  0  0  0  0  0  0  0  0  0  0
    0.6595   -1.6225    1.0890 H   0  0  0  0  0  0  0  0  0  0  0  0
   -1.0692   -1.7509   -1.5144 H   0  0  0  0  0  0  0  0  0  0  0  0
   -2.4862    0.0703   -0.5880 H   0  0  0  0  0  0  0  0  0  0  0  0
   -1.3922    1.0131    1.8056 H   0  0  0  0  0  0  0  0  0  0  0  0
   -0.5594    1.8473   -1.1545 H   0  0  0  0  0  0  0  0  0  0  0  0
   -0.5146    2.9308    0.4059 H   0  0  0  0  0  0  0  0  0  0  0  0
    1.0951    1.3471    1.4562 H   0  0  0  0  0  0  0  0  0  0  0  0
  1  2  1  0
  2  3  1  0
  3  4  1  0
  4  5  1  0
  5  6  1  0
  6  7  1  0
  7  8  1  0
  8  9  1  0
  9  2  1  0
  6  4  1  0
  9  7  1  0
  1 10  1  0
  2 11  1  0
  3 12  1  0
  3 13  1  0
  4 14  1  0
  6 15  1  0
  7 16  1  0
  8 17  1  0
  8 18  1  0
  9 19  1  0
M  END
