
     RDKit          3D

 15 16  0  0  0  0  0  0  0  0999 V2000
   -1.9052   -1.0058    0.6290 O   0  0  0  0  0  0  0  0  0  0  0  0
   -0.8878   -0.1032    0.7127 C   0  0  0  0  0  0  0  0  0  0  0  0
   -0.8791    1.0139   -0.3081 C   0  0  0  0  0  0  0  0  0  0  0  0
    0.5761    0.8879   -0.5654 C   0  0  0  0  0  0  0  0  0  0  0  0
    1.5548    0.3779    0.3966 C   0  0  0  0  0  0  0  0  0  0  0  0
    0.4382   -0.5277    0.0934 C   0  0  0  0  0  0  0  0  0  0  0  0
    0.4967   -1.5764   -0.7700 O   0  0  0  0  0  0  0  0  0  0  0  0
   -1.9879   -1.4896   -0.2085 H   0  0  0  0  0  0  0  0  0  0  0  0
   -0.8064    0.3231    1.7243 H   0  0  0  0  0  0  0  0  0  0  0  0
   -1.2419    1.9742    0.0725 H   0  0  0  0  0  0  0  0  0  0  0  0
   -1.4796    0.7117   -1.2159 H   0  0  0  0  0  0  0  0  0  0  0  0
    0.8931    0.8796   -1.6351 H   0  0  0  0  0  0  0  0  0  0  0  0
    2.5375    0.0678    0.0411 H   0  0  0  0  0  0  0  0  0  0  0  0
    1.5799    0.7343    1.4672 H   0  0  0  0  0  0  0  0  0  0  0  0
    1.1117   -2.2678   -0.4339 H   0  0  0  0  0  0  0  0  0  0  0  0
  1  2  1  0
  2  3  1  0
  3  4  1  0
  4  5  1  0
  5  6  1  0
  6  7  1  0
  6  2  1  0
  6  4  1  0
  1  8  1  0
  2  9  1  0
  3 10  1  0
  3 11  1  0
  4 12  1  0
  5 13  1  0
  5 14  1  0
  7 15  1  0
M  END
