
     RDKit          3D

 17 19  0  0  0  0  0  0  0  0999 V2000
    2.5824    0.9012   -0.4906 O   0  0  0  0  0  0  0  0  0  0  0  0
    1.2132    0.6365   -0.6027 C   0  0  0  0  0  0  0  0  0  0  0  0
    0.3425    0.6788    0.5879 C   0  0  0  0  0  0  0  0  0  0  0  0
   -1.1028    0.3390    0.3496 C   0  0  0  0  0  0  0  0  0  0  0  0
   -2.0612    0.5846    1.2936 O   0  0  0  0  0  0  0  0  0  0  0  0
   -1.5363   -0.1533   -0.9585 C   0  0  0  0  0  0  0  0  0  0  0  0
   -0.7039   -1.0088   -0.0863 C   0  0  0  0  0  0  0  0  0  0  0  0
    0.7557   -0.6196   -0.0042 C   0  0  0  0  0  0  0  0  0  0  0  0
    1.5810   -1.5003    0.6399 O   0  0  0  0  0  0  0  0  0  0  0  0
    3.0204    0.2580   -1.1346 H   0  0  0  0  0  0  0  0  0  0  0  0
    0.7973    1.0175   -1.5697 H   0  0  0  0  0  0  0  0  0  0  0  0
    0.7052    0.8986    1.5964 H   0  0  0  0  0  0  0  0  0  0  0  0
   -2.1842    1.5874    1.3301 H   0  0  0  0  0  0  0  0  0  0  0  0
   -1.1221    0.3435   -1.8540 H   0  0  0  0  0  0  0  0  0  0  0  0
   -2.5849   -0.4647   -1.0795 H   0  0  0  0  0  0  0  0  0  0  0  0
   -1.0504   -1.9244    0.3843 H   0  0  0  0  0  0  0  0  0  0  0  0
    1.3481   -1.5740    1.5981 H   0  0  0  0  0  0  0  0  0  0  0  0
  1  2  1  0
  2  3  1  0
  3  4  1  0
  4  5  1  0
  4  6  1  0
  6  7  1  0
  7  8  1  0
  8  9  1  0
  8  2  1  0
  8  3  1  0
  7  4  1  0
  1 10  1  0
  2 11  1  0
  3 12  1  0
  5 13  1  0
  6 14  1  0
  6 15  1  0
  7 16  1  0
  9 17  1  0
M  END
