
     RDKit          3D

 16 17  0  0  0  0  0  0  0  0999 V2000
    1.9805   -0.5723    1.0334 O   0  0  0  0  0  0  0  0  0  0  0  0
    0.6943   -0.1211    0.8184 C   0  0  0  0  0  0  0  0  0  0  0  0
    0.6296    0.5906   -0.5493 C   0  0  0  0  0  0  0  0  0  0  0  0
    0.9227    1.9179   -0.5197 O   0  0  0  0  0  0  0  0  0  0  0  0
   -0.8394    0.3079   -0.3259 C   0  0  0  0  0  0  0  0  0  0  0  0
   -1.2415    1.1046    0.7813 O   0  0  0  0  0  0  0  0  0  0  0  0
   -1.5311   -0.9319   -0.3834 C   0  0  0  0  0  0  0  0  0  0  0  0
   -0.1919   -1.0861    0.0713 C   0  0  0  0  0  0  0  0  0  0  0  0
    2.2786   -1.0077    0.1721 H   0  0  0  0  0  0  0  0  0  0  0  0
    0.2971    0.4111    1.6643 H   0  0  0  0  0  0  0  0  0  0  0  0
    1.0664   -0.0391   -1.3219 H   0  0  0  0  0  0  0  0  0  0  0  0
    1.8814    2.0469   -0.3237 H   0  0  0  0  0  0  0  0  0  0  0  0
   -2.1901    1.3746    0.6869 H   0  0  0  0  0  0  0  0  0  0  0  0
   -2.3413   -1.2151    0.3545 H   0  0  0  0  0  0  0  0  0  0  0  0
   -1.8854   -1.2512   -1.4121 H   0  0  0  0  0  0  0  0  0  0  0  0
    0.4700   -1.5291   -0.7462 H   0  0  0  0  0  0  0  0  0  0  0  0
  1  2  1  0
  2  3  1  0
  3  4  1  0
  3  5  1  0
  5  6  1  0
  5  7  1  0
  7  8  1  0
  8  2  1  0
  8  5  1  0
  1  9  1  0
  2 10  1  0
  3 11  1  0
  4 12  1  0
  6 13  1  0
  7 14  1  0
  7 15  1  0
  8 16  1  0
M  END
