
     RDKit          3D

 19 20  0  0  0  0  0  0  0  0999 V2000
   -1.8540    0.2177    1.7534 O   0  0  0  0  0  0  0  0  0  0  0  0
   -1.7092   -0.7944    0.8270 C   0  0  0  0  0  0  0  0  0  0  0  0
   -1.6343   -0.3290   -0.6006 C   0  0  0  0  0  0  0  0  0  0  0  0
   -1.7482    1.0145   -0.8986 O   0  0  0  0  0  0  0  0  0  0  0  0
   -0.4311   -0.9044    0.0313 C   0  0  0  0  0  0  0  0  0  0  0  0
    0.7449   -0.0923    0.4472 C   0  0  0  0  0  0  0  0  0  0  0  0
    1.9217   -0.3643   -0.5001 C   0  0  0  0  0  0  0  0  0  0  0  0
    2.1570    1.1069   -0.3099 C   0  0  0  0  0  0  0  0  0  0  0  0
    0.7907    1.2201    0.0290 O   0  0  0  0  0  0  0  0  0  0  0  0
   -2.5823    0.8215    1.3990 H   0  0  0  0  0  0  0  0  0  0  0  0
   -2.2588   -1.7379    1.0699 H   0  0  0  0  0  0  0  0  0  0  0  0
   -2.2212   -0.9811   -1.2993 H   0  0  0  0  0  0  0  0  0  0  0  0
   -1.5026    1.6245   -0.1887 H   0  0  0  0  0  0  0  0  0  0  0  0
   -0.1740   -1.9535   -0.2756 H   0  0  0  0  0  0  0  0  0  0  0  0
    1.0130   -0.1585    1.5184 H   0  0  0  0  0  0  0  0  0  0  0  0
    1.6176   -0.6555   -1.5011 H   0  0  0  0  0  0  0  0  0  0  0  0
    2.6302   -1.0326    0.0364 H   0  0  0  0  0  0  0  0  0  0  0  0
    2.8496    1.2997    0.5262 H   0  0  0  0  0  0  0  0  0  0  0  0
    2.3910    1.6987   -1.1938 H   0  0  0  0  0  0  0  0  0  0  0  0
  1  2  1  0
  2  3  1  0
  3  4  1  0
  3  5  1  0
  5  6  1  0
  6  7  1  0
  7  8  1  0
  8  9  1  0
  5  2  1  0
  9  6  1  0
  1 10  1  0
  2 11  1  0
  3 12  1  0
  4 13  1  0
  5 14  1  0
  6 15  1  0
  7 16  1  0
  7 17  1  0
  8 18  1  0
  8 19  1  0
M  END
