
     RDKit          3D

 19 20  0  0  0  0  0  0  0  0999 V2000
    2.7125   -0.0108   -0.1811 O   0  0  0  0  0  0  0  0  0  0  0  0
    1.3085   -0.0362   -0.3633 C   0  0  0  0  0  0  0  0  0  0  0  0
    0.8282   -1.2829    0.3954 C   0  0  0  0  0  0  0  0  0  0  0  0
   -0.4821   -1.6406   -0.2620 C   0  0  0  0  0  0  0  0  0  0  0  0
   -1.5582   -0.8778   -0.2793 C   0  0  0  0  0  0  0  0  0  0  0  0
   -1.7457    0.4346    0.3014 C   0  0  0  0  0  0  0  0  0  0  0  0
   -0.6878    1.4517    0.1298 C   0  0  0  0  0  0  0  0  0  0  0  0
   -0.1479    1.7434   -1.1239 O   0  0  0  0  0  0  0  0  0  0  0  0
    0.6529    1.2113    0.0388 C   0  0  0  0  0  0  0  0  0  0  0  0
    2.8941    0.7400    0.4197 H   0  0  0  0  0  0  0  0  0  0  0  0
    1.1943   -0.3283   -1.4490 H   0  0  0  0  0  0  0  0  0  0  0  0
    1.5339   -2.0826    0.1221 H   0  0  0  0  0  0  0  0  0  0  0  0
    0.7219   -1.1002    1.4632 H   0  0  0  0  0  0  0  0  0  0  0  0
   -0.5505   -2.6064   -0.7648 H   0  0  0  0  0  0  0  0  0  0  0  0
   -2.4076   -1.2916   -0.7958 H   0  0  0  0  0  0  0  0  0  0  0  0
   -2.7133    0.8970   -0.0621 H   0  0  0  0  0  0  0  0  0  0  0  0
   -1.9269    0.3508    1.4159 H   0  0  0  0  0  0  0  0  0  0  0  0
   -1.0191    2.4238    0.6238 H   0  0  0  0  0  0  0  0  0  0  0  0
    1.3927    2.0047    0.3714 H   0  0  0  0  0  0  0  0  0  0  0  0
  1  2  1  0
  2  3  1  0
  3  4  1  0
  4  5  2  0
  5  6  1  0
  6  7  1  0
  7  8  1  0
  8  9  1  0
  9  2  1  0
  9  7  1  0
  1 10  1  0
  2 11  1  0
  3 12  1  0
  3 13  1  0
  4 14  1  0
  5 15  1  0
  6 16  1  0
  6 17  1  0
  7 18  1  0
  9 19  1  0
M  END
