
     RDKit          2D

 19 21  0  0  0  0  0  0  0  0999 V2000
   -2.5241    0.5932    0.0000 O   0  0  0  0  0  0  0  0  0  0  0  0
   -1.0323    0.7500    0.0000 C   0  0  0  0  0  0  0  0  0  0  0  0
    0.3943    1.2135    0.0000 C   0  0  0  0  0  0  0  0  0  0  0  0
    1.2760    0.0000    0.0000 O   0  0  0  0  0  0  0  0  0  0  0  0
    0.3943   -1.2135    0.0000 C   0  0  0  0  0  0  0  0  0  0  0  0
   -1.0323   -0.7500    0.0000 C   0  0  0  0  0  0  0  0  0  0  0  0
   -0.9730   -0.7307    0.0000 C   0  0  0  0  0  0  0  0  0  0  0  0
    0.3350   -0.3058    0.0000 C   0  0  0  0  0  0  0  0  0  0  0  0
    0.3943   -0.2865    0.0000 C   0  0  0  0  0  0  0  0  0  0  0  0
   -3.4057    1.8067    0.0000 H   0  0  0  0  0  0  0  0  0  0  0  0
   -1.3442    2.2172    0.0000 H   0  0  0  0  0  0  0  0  0  0  0  0
    0.8578    2.6401    0.0000 H   0  0  0  0  0  0  0  0  0  0  0  0
    1.6933   -1.9635    0.0000 H   0  0  0  0  0  0  0  0  0  0  0  0
    0.1339   -2.6908    0.0000 H   0  0  0  0  0  0  0  0  0  0  0  0
   -0.1052   -3.6032    0.0000 H   0  0  0  0  0  0  0  0  0  0  0  0
   -1.9953   -2.6401    0.0000 H   0  0  0  0  0  0  0  0  0  0  0  0
    2.2844   -1.2495    0.0000 H   0  0  0  0  0  0  0  0  0  0  0  0
    1.3213   -3.1396    0.0000 H   0  0  0  0  0  0  0  0  0  0  0  0
    1.8886   -0.4173    0.0000 H   0  0  0  0  0  0  0  0  0  0  0  0
  1  2  1  0
  2  3  1  0
  3  4  1  0
  4  5  1  0
  5  6  1  0
  6  7  1  0
  7  8  1  0
  8  9  1  0
  6  2  1  0
  9  3  1  0
  9  6  1  0
  1 10  1  0
  2 11  1  0
  3 12  1  0
  5 13  1  0
  5 14  1  0
  7 15  1  0
  7 16  1  0
  8 17  1  0
  8 18  1  0
  9 19  1  0
M  END
