
     RDKit          3D

 19 21  0  0  0  0  0  0  0  0999 V2000
   -2.2534    1.1542   -0.4458 O   0  0  0  0  0  0  0  0  0  0  0  0
   -0.8710    1.1811   -0.2781 C   0  0  0  0  0  0  0  0  0  0  0  0
    0.0011    0.1759   -0.8942 C   0  0  0  0  0  0  0  0  0  0  0  0
    1.4435    0.4032   -0.8966 C   0  0  0  0  0  0  0  0  0  0  0  0
    1.9494    0.4610    0.3249 C   0  0  0  0  0  0  0  0  0  0  0  0
    0.9034    0.2777    1.3525 C   0  0  0  0  0  0  0  0  0  0  0  0
   -0.3402    0.0730    0.5618 C   0  0  0  0  0  0  0  0  0  0  0  0
   -0.8881   -1.3016    0.3061 C   0  0  0  0  0  0  0  0  0  0  0  0
   -0.5045   -1.2232   -1.1539 C   0  0  0  0  0  0  0  0  0  0  0  0
   -2.6299    1.5728    0.3880 H   0  0  0  0  0  0  0  0  0  0  0  0
   -0.4646    2.1967   -0.1744 H   0  0  0  0  0  0  0  0  0  0  0  0
    2.0516    0.5151   -1.7892 H   0  0  0  0  0  0  0  0  0  0  0  0
    3.0001    0.6219    0.5802 H   0  0  0  0  0  0  0  0  0  0  0  0
    0.8441    1.1141    2.0762 H   0  0  0  0  0  0  0  0  0  0  0  0
    1.0718   -0.6553    1.9581 H   0  0  0  0  0  0  0  0  0  0  0  0
   -0.3101   -2.0478    0.8898 H   0  0  0  0  0  0  0  0  0  0  0  0
   -1.9857   -1.3260    0.4856 H   0  0  0  0  0  0  0  0  0  0  0  0
    0.3076   -1.9294   -1.4222 H   0  0  0  0  0  0  0  0  0  0  0  0
   -1.3250   -1.2634   -1.8689 H   0  0  0  0  0  0  0  0  0  0  0  0
  1  2  1  0
  2  3  1  0
  3  4  1  0
  4  5  2  0
  5  6  1  0
  6  7  1  0
  7  8  1  0
  8  9  1  0
  7  2  1  0
  7  3  1  0
  9  3  1  0
  1 10  1  0
  2 11  1  0
  4 12  1  0
  5 13  1  0
  6 14  1  0
  6 15  1  0
  8 16  1  0
  8 17  1  0
  9 18  1  0
  9 19  1  0
M  END
