
     RDKit          3D

 19 21  0  0  0  0  0  0  0  0999 V2000
   -2.9868   -0.4740   -0.3703 O   0  0  0  0  0  0  0  0  0  0  0  0
   -1.6601   -0.8181   -0.4657 C   0  0  0  0  0  0  0  0  0  0  0  0
   -0.7938   -0.4858    0.7200 C   0  0  0  0  0  0  0  0  0  0  0  0
   -0.9808    0.9495    0.3271 C   0  0  0  0  0  0  0  0  0  0  0  0
   -0.7305    0.2494   -0.9824 C   0  0  0  0  0  0  0  0  0  0  0  0
    0.3439   -0.4990   -0.2704 C   0  0  0  0  0  0  0  0  0  0  0  0
    1.5482    0.2276    0.1933 C   0  0  0  0  0  0  0  0  0  0  0  0
    2.7753    0.3420   -0.6232 C   0  0  0  0  0  0  0  0  0  0  0  0
    2.7133   -0.7239    0.2405 O   0  0  0  0  0  0  0  0  0  0  0  0
   -3.2311   -0.2612    0.5735 H   0  0  0  0  0  0  0  0  0  0  0  0
   -1.4209   -1.7935   -0.9242 H   0  0  0  0  0  0  0  0  0  0  0  0
   -0.8149   -0.8917    1.6282 H   0  0  0  0  0  0  0  0  0  0  0  0
   -1.9994    1.3618    0.4380 H   0  0  0  0  0  0  0  0  0  0  0  0
   -0.1797    1.6149    0.6924 H   0  0  0  0  0  0  0  0  0  0  0  0
   -0.7206    0.6526   -1.8933 H   0  0  0  0  0  0  0  0  0  0  0  0
    0.4879   -1.4978   -0.7318 H   0  0  0  0  0  0  0  0  0  0  0  0
    1.5389    0.6740    1.2307 H   0  0  0  0  0  0  0  0  0  0  0  0
    2.6429    0.2015   -1.7174 H   0  0  0  0  0  0  0  0  0  0  0  0
    3.4681    1.1719   -0.2978 H   0  0  0  0  0  0  0  0  0  0  0  0
  1  2  1  0
  2  3  1  0
  3  4  1  0
  4  5  1  0
  5  6  1  0
  6  7  1  0
  7  8  1  0
  8  9  1  0
  5  2  1  0
  9  7  1  0
  6  3  1  0
  1 10  1  0
  2 11  1  0
  3 12  1  0
  4 13  1  0
  4 14  1  0
  5 15  1  0
  6 16  1  0
  7 17  1  0
  8 18  1  0
  8 19  1  0
M  END
