
     RDKit          3D

 21 23  0  0  0  0  0  0  0  0999 V2000
    2.4041   -0.9858   -1.0094 O   0  0  0  0  0  0  0  0  0  0  0  0
    1.5724   -0.7364    0.0575 C   0  0  0  0  0  0  0  0  0  0  0  0
    1.5576    0.7648    0.4016 C   0  0  0  0  0  0  0  0  0  0  0  0
    0.0897    0.9958    0.3928 C   0  0  0  0  0  0  0  0  0  0  0  0
   -0.5394   -0.2770    0.9672 C   0  0  0  0  0  0  0  0  0  0  0  0
   -1.9810   -0.1998    0.5989 C   0  0  0  0  0  0  0  0  0  0  0  0
   -1.8435    0.3579   -0.8324 C   0  0  0  0  0  0  0  0  0  0  0  0
   -0.3384    0.3607   -0.9351 C   0  0  0  0  0  0  0  0  0  0  0  0
    0.1141   -0.9050   -0.2715 C   0  0  0  0  0  0  0  0  0  0  0  0
    3.3335   -0.8418   -0.7000 H   0  0  0  0  0  0  0  0  0  0  0  0
    1.8201   -1.3381    0.9513 H   0  0  0  0  0  0  0  0  0  0  0  0
    2.0709    0.9756    1.3359 H   0  0  0  0  0  0  0  0  0  0  0  0
    1.9980    1.2923   -0.4862 H   0  0  0  0  0  0  0  0  0  0  0  0
   -0.3375    1.9270    0.6577 H   0  0  0  0  0  0  0  0  0  0  0  0
   -0.2196   -0.6083    1.9175 H   0  0  0  0  0  0  0  0  0  0  0  0
   -2.5920    0.4466    1.2261 H   0  0  0  0  0  0  0  0  0  0  0  0
   -2.4419   -1.2232    0.5571 H   0  0  0  0  0  0  0  0  0  0  0  0
   -2.3405   -0.2825   -1.5643 H   0  0  0  0  0  0  0  0  0  0  0  0
   -2.2036    1.4180   -0.8481 H   0  0  0  0  0  0  0  0  0  0  0  0
    0.1321    0.7051   -1.8212 H   0  0  0  0  0  0  0  0  0  0  0  0
   -0.2552   -1.8459   -0.5952 H   0  0  0  0  0  0  0  0  0  0  0  0
  1  2  1  0
  2  3  1  0
  3  4  1  0
  4  5  1  0
  5  6  1  0
  6  7  1  0
  7  8  1  0
  8  9  1  0
  9  2  1  0
  8  4  1  0
  9  5  1  0
  1 10  1  0
  2 11  1  0
  3 12  1  0
  3 13  1  0
  4 14  1  0
  5 15  1  0
  6 16  1  0
  6 17  1  0
  7 18  1  0
  7 19  1  0
  8 20  1  0
  9 21  1  0
M  END
