
     RDKit          3D

 16 17  0  0  0  0  0  0  0  0999 V2000
    1.7713   -0.1985   -1.4707 O   0  0  0  0  0  0  0  0  0  0  0  0
    1.5817   -0.5961   -0.1577 C   0  0  0  0  0  0  0  0  0  0  0  0
    0.6479    0.3290    0.6305 C   0  0  0  0  0  0  0  0  0  0  0  0
   -0.1598    1.2944   -0.1419 C   0  0  0  0  0  0  0  0  0  0  0  0
   -1.3802    0.9470   -0.5324 C   0  0  0  0  0  0  0  0  0  0  0  0
   -1.8898   -0.4286   -0.1668 C   0  0  0  0  0  0  0  0  0  0  0  0
   -0.8029   -1.2718   -0.4805 O   0  0  0  0  0  0  0  0  0  0  0  0
    0.2712   -1.0593    0.3403 C   0  0  0  0  0  0  0  0  0  0  0  0
    2.6367    0.3118   -1.4926 H   0  0  0  0  0  0  0  0  0  0  0  0
    2.4941   -0.9279    0.3571 H   0  0  0  0  0  0  0  0  0  0  0  0
    1.0216    0.6351    1.6327 H   0  0  0  0  0  0  0  0  0  0  0  0
    0.2861    2.2587   -0.3591 H   0  0  0  0  0  0  0  0  0  0  0  0
   -1.9542    1.6514   -1.0891 H   0  0  0  0  0  0  0  0  0  0  0  0
   -2.1128   -0.4158    0.8992 H   0  0  0  0  0  0  0  0  0  0  0  0
   -2.7337   -0.7245   -0.7886 H   0  0  0  0  0  0  0  0  0  0  0  0
    0.3229   -1.8050    1.1876 H   0  0  0  0  0  0  0  0  0  0  0  0
  1  2  1  0
  2  3  1  0
  3  4  1  0
  4  5  2  0
  5  6  1  0
  6  7  1  0
  7  8  1  0
  8  2  1  0
  8  3  1  0
  1  9  1  0
  2 10  1  0
  3 11  1  0
  4 12  1  0
  5 13  1  0
  6 14  1  0
  6 15  1  0
  8 16  1  0
M  END
