
     RDKit          3D

 21 22  0  0  0  0  0  0  0  0999 V2000
   -3.6752    0.2362   -0.1783 O   0  0  0  0  0  0  0  0  0  0  0  0
   -2.3036    0.3717   -0.3446 C   0  0  0  0  0  0  0  0  0  0  0  0
   -1.5368    0.6188    0.9392 C   0  0  0  0  0  0  0  0  0  0  0  0
   -0.5008   -0.3981    0.5173 C   0  0  0  0  0  0  0  0  0  0  0  0
    0.5355    0.2100   -0.1408 O   0  0  0  0  0  0  0  0  0  0  0  0
    1.7865   -0.1851    0.2404 C   0  0  0  0  0  0  0  0  0  0  0  0
    2.9935    0.6508    0.0592 C   0  0  0  0  0  0  0  0  0  0  0  0
    2.7485   -0.4016   -0.9501 C   0  0  0  0  0  0  0  0  0  0  0  0
   -1.5426   -0.9294   -0.4785 C   0  0  0  0  0  0  0  0  0  0  0  0
   -4.0628    1.0071    0.3011 H   0  0  0  0  0  0  0  0  0  0  0  0
   -2.0866    1.1051   -1.1498 H   0  0  0  0  0  0  0  0  0  0  0  0
   -2.0326    0.3156    1.8641 H   0  0  0  0  0  0  0  0  0  0  0  0
   -1.1869    1.6593    0.9619 H   0  0  0  0  0  0  0  0  0  0  0  0
   -0.2239   -1.1425    1.2858 H   0  0  0  0  0  0  0  0  0  0  0  0
    1.8161   -0.9537    1.0398 H   0  0  0  0  0  0  0  0  0  0  0  0
    2.9422    1.6899   -0.2947 H   0  0  0  0  0  0  0  0  0  0  0  0
    3.8398    0.4741    0.7583 H   0  0  0  0  0  0  0  0  0  0  0  0
    3.3285   -1.3503   -0.9337 H   0  0  0  0  0  0  0  0  0  0  0  0
    2.4195   -0.1013   -1.9402 H   0  0  0  0  0  0  0  0  0  0  0  0
   -2.0774   -1.8118   -0.0603 H   0  0  0  0  0  0  0  0  0  0  0  0
   -1.1808   -1.0648   -1.4959 H   0  0  0  0  0  0  0  0  0  0  0  0
  1  2  1  0
  2  3  1  0
  3  4  1  0
  4  5  1  0
  5  6  1  0
  6  7  1  0
  7  8  1  0
  4  9  1  0
  9  2  1  0
  8  6  1  0
  1 10  1  0
  2 11  1  0
  3 12  1  0
  3 13  1  0
  4 14  1  0
  6 15  1  0
  7 16  1  0
  7 17  1  0
  8 18  1  0
  8 19  1  0
  9 20  1  0
  9 21  1  0
M  END
