
     RDKit          3D

 19 20  0  0  0  0  0  0  0  0999 V2000
    1.3073    0.8521   -1.5823 O   0  0  0  0  0  0  0  0  0  0  0  0
    0.9965   -0.3686   -0.9615 C   0  0  0  0  0  0  0  0  0  0  0  0
    1.5520   -0.3696    0.4379 C   0  0  0  0  0  0  0  0  0  0  0  0
    0.5349    0.4732    1.1854 C   0  0  0  0  0  0  0  0  0  0  0  0
   -0.7937    0.2104    0.5706 C   0  0  0  0  0  0  0  0  0  0  0  0
   -1.7720   -0.3704    1.4068 O   0  0  0  0  0  0  0  0  0  0  0  0
   -1.2400    0.7825   -0.6997 C   0  0  0  0  0  0  0  0  0  0  0  0
   -0.4892   -0.4839   -0.7432 C   0  0  0  0  0  0  0  0  0  0  0  0
   -1.0983   -1.7132   -0.8797 O   0  0  0  0  0  0  0  0  0  0  0  0
    1.2857    1.5396   -0.8573 H   0  0  0  0  0  0  0  0  0  0  0  0
    1.3987   -1.1959   -1.5751 H   0  0  0  0  0  0  0  0  0  0  0  0
    2.5315    0.1330    0.4601 H   0  0  0  0  0  0  0  0  0  0  0  0
    1.5690   -1.4091    0.7934 H   0  0  0  0  0  0  0  0  0  0  0  0
    0.5355    0.1198    2.2489 H   0  0  0  0  0  0  0  0  0  0  0  0
    0.8085    1.5493    1.1500 H   0  0  0  0  0  0  0  0  0  0  0  0
   -2.6590   -0.0693    1.1268 H   0  0  0  0  0  0  0  0  0  0  0  0
   -0.7487    1.6683   -1.1579 H   0  0  0  0  0  0  0  0  0  0  0  0
   -2.3138    0.7229   -0.9305 H   0  0  0  0  0  0  0  0  0  0  0  0
   -1.4050   -2.0712    0.0074 H   0  0  0  0  0  0  0  0  0  0  0  0
  1  2  1  0
  2  3  1  0
  3  4  1  0
  4  5  1  0
  5  6  1  0
  5  7  1  0
  7  8  1  0
  8  9  1  0
  8  2  1  0
  8  5  1  0
  1 10  1  0
  2 11  1  0
  3 12  1  0
  3 13  1  0
  4 14  1  0
  4 15  1  0
  6 16  1  0
  7 17  1  0
  7 18  1  0
  9 19  1  0
M  END
