
     RDKit          3D

 18 19  0  0  0  0  0  0  0  0999 V2000
    2.0762   -0.0817   -1.2594 O   0  0  0  0  0  0  0  0  0  0  0  0
    1.2870    0.0341   -0.1159 C   0  0  0  0  0  0  0  0  0  0  0  0
    0.4260   -1.2073    0.0718 C   0  0  0  0  0  0  0  0  0  0  0  0
   -0.7558   -0.8754    0.9303 C   0  0  0  0  0  0  0  0  0  0  0  0
   -1.7569   -0.1291    0.0643 C   0  0  0  0  0  0  0  0  0  0  0  0
   -0.9275    1.0224    0.5034 C   0  0  0  0  0  0  0  0  0  0  0  0
    0.3404    1.2012   -0.2822 C   0  0  0  0  0  0  0  0  0  0  0  0
   -0.5964    0.2965    1.6618 O   0  0  0  0  0  0  0  0  0  0  0  0
    3.0356   -0.1933   -1.0121 H   0  0  0  0  0  0  0  0  0  0  0  0
    1.9321    0.1525    0.7927 H   0  0  0  0  0  0  0  0  0  0  0  0
    0.0314   -1.4463   -0.9565 H   0  0  0  0  0  0  0  0  0  0  0  0
    1.0016   -2.0732    0.3878 H   0  0  0  0  0  0  0  0  0  0  0  0
   -1.1900   -1.6884    1.5212 H   0  0  0  0  0  0  0  0  0  0  0  0
   -2.7796   -0.0648    0.4860 H   0  0  0  0  0  0  0  0  0  0  0  0
   -1.6840   -0.4601   -0.9750 H   0  0  0  0  0  0  0  0  0  0  0  0
   -1.4804    1.9492    0.6691 H   0  0  0  0  0  0  0  0  0  0  0  0
    0.8692    2.0882    0.1724 H   0  0  0  0  0  0  0  0  0  0  0  0
    0.1711    1.4754   -1.3370 H   0  0  0  0  0  0  0  0  0  0  0  0
  1  2  1  0
  2  3  1  0
  3  4  1  0
  4  5  1  0
  5  6  1  0
  6  7  1  0
  6  8  1  0
  7  2  1  0
  8  4  1  0
  1  9  1  0
  2 10  1  0
  3 11  1  0
  3 12  1  0
  4 13  1  0
  5 14  1  0
  5 15  1  0
  6 16  1  0
  7 17  1  0
  7 18  1  0
M  END
