
     RDKit          3D

 19 19  0  0  0  0  0  0  0  0999 V2000
   -2.4435    0.4396   -0.6691 O   0  0  0  0  0  0  0  0  0  0  0  0
   -1.2834    0.2419    0.1137 C   0  0  0  0  0  0  0  0  0  0  0  0
   -0.6962   -1.1318   -0.1604 C   0  0  0  0  0  0  0  0  0  0  0  0
    0.5563   -1.2568    0.6751 C   0  0  0  0  0  0  0  0  0  0  0  0
    1.5607   -0.2528    0.1317 C   0  0  0  0  0  0  0  0  0  0  0  0
    1.0403    1.1480    0.3368 C   0  0  0  0  0  0  0  0  0  0  0  0
   -0.2833    1.2717   -0.3723 C   0  0  0  0  0  0  0  0  0  0  0  0
   -2.4827   -0.1899   -1.4281 H   0  0  0  0  0  0  0  0  0  0  0  0
   -1.5560    0.3754    1.1714 H   0  0  0  0  0  0  0  0  0  0  0  0
   -1.4380   -1.9177    0.0491 H   0  0  0  0  0  0  0  0  0  0  0  0
   -0.3698   -1.1134   -1.2315 H   0  0  0  0  0  0  0  0  0  0  0  0
    0.9824   -2.2622    0.5336 H   0  0  0  0  0  0  0  0  0  0  0  0
    0.3391   -1.0849    1.7516 H   0  0  0  0  0  0  0  0  0  0  0  0
    1.5942   -0.4183   -0.9753 H   0  0  0  0  0  0  0  0  0  0  0  0
    2.5456   -0.4307    0.5804 H   0  0  0  0  0  0  0  0  0  0  0  0
    1.7502    1.8281   -0.2015 H   0  0  0  0  0  0  0  0  0  0  0  0
    1.0089    1.4614    1.3860 H   0  0  0  0  0  0  0  0  0  0  0  0
   -0.7341    2.2680   -0.2423 H   0  0  0  0  0  0  0  0  0  0  0  0
   -0.0908    1.0244   -1.4490 H   0  0  0  0  0  0  0  0  0  0  0  0
  1  2  1  0
  2  3  1  0
  3  4  1  0
  4  5  1  0
  5  6  1  0
  6  7  1  0
  7  2  1  0
  1  8  1  0
  2  9  1  0
  3 10  1  0
  3 11  1  0
  4 12  1  0
  4 13  1  0
  5 14  1  0
  5 15  1  0
  6 16  1  0
  6 17  1  0
  7 18  1  0
  7 19  1  0
M  END
