
     RDKit          3D

 17 18  0  0  0  0  0  0  0  0999 V2000
    0.0472   -0.8792    1.8468 O   0  0  0  0  0  0  0  0  0  0  0  0
    0.0177   -1.2095    0.4922 C   0  0  0  0  0  0  0  0  0  0  0  0
   -0.8200   -0.2589   -0.3354 C   0  0  0  0  0  0  0  0  0  0  0  0
   -1.6531   -0.8355   -1.2659 O   0  0  0  0  0  0  0  0  0  0  0  0
   -1.1096    1.0928    0.2397 C   0  0  0  0  0  0  0  0  0  0  0  0
    0.0260    1.8611   -0.0603 O   0  0  0  0  0  0  0  0  0  0  0  0
    1.1213    1.0295    0.0923 C   0  0  0  0  0  0  0  0  0  0  0  0
    0.6556   -0.2905   -0.4571 C   0  0  0  0  0  0  0  0  0  0  0  0
    1.1418   -0.6983   -1.6863 O   0  0  0  0  0  0  0  0  0  0  0  0
    0.6639   -1.4146    2.3742 H   0  0  0  0  0  0  0  0  0  0  0  0
   -0.0977   -2.2925    0.3164 H   0  0  0  0  0  0  0  0  0  0  0  0
   -2.3215   -0.2188   -1.6303 H   0  0  0  0  0  0  0  0  0  0  0  0
   -2.0065    1.5254   -0.2238 H   0  0  0  0  0  0  0  0  0  0  0  0
   -1.1580    1.0515    1.3514 H   0  0  0  0  0  0  0  0  0  0  0  0
    1.4429    0.9818    1.1433 H   0  0  0  0  0  0  0  0  0  0  0  0
    1.9513    1.4439   -0.4910 H   0  0  0  0  0  0  0  0  0  0  0  0
    2.0985   -0.8880   -1.7061 H   0  0  0  0  0  0  0  0  0  0  0  0
  1  2  1  0
  2  3  1  0
  3  4  1  0
  3  5  1  0
  5  6  1  0
  6  7  1  0
  7  8  1  0
  8  9  1  0
  8  2  1  0
  8  3  1  0
  1 10  1  0
  2 11  1  0
  4 12  1  0
  5 13  1  0
  5 14  1  0
  7 15  1  0
  7 16  1  0
  9 17  1  0
M  END
