
     RDKit          3D

 21 23  0  0  0  0  0  0  0  0999 V2000
    2.9062   -0.5258    0.5495 O   0  0  0  0  0  0  0  0  0  0  0  0
    1.5716   -0.5812    0.4747 C   0  0  0  0  0  0  0  0  0  0  0  0
    0.8897   -0.4101   -0.8552 C   0  0  0  0  0  0  0  0  0  0  0  0
    1.1996    1.0625   -0.7391 C   0  0  0  0  0  0  0  0  0  0  0  0
    0.7634    0.6653    0.6410 C   0  0  0  0  0  0  0  0  0  0  0  0
   -0.2983   -0.0900   -0.0767 C   0  0  0  0  0  0  0  0  0  0  0  0
   -1.1089   -1.0747    0.6076 C   0  0  0  0  0  0  0  0  0  0  0  0
   -2.2807   -0.1076    0.4646 C   0  0  0  0  0  0  0  0  0  0  0  0
   -1.4583    0.5985   -0.6129 C   0  0  0  0  0  0  0  0  0  0  0  0
    3.4009   -0.1315   -0.2004 H   0  0  0  0  0  0  0  0  0  0  0  0
    1.1460   -1.4069    1.0782 H   0  0  0  0  0  0  0  0  0  0  0  0
    1.0247   -0.9783   -1.6740 H   0  0  0  0  0  0  0  0  0  0  0  0
    2.2157    1.3797   -0.8882 H   0  0  0  0  0  0  0  0  0  0  0  0
    0.4797    1.6434   -1.3277 H   0  0  0  0  0  0  0  0  0  0  0  0
    0.6829    1.2508    1.4492 H   0  0  0  0  0  0  0  0  0  0  0  0
   -1.3573   -1.9976    0.0287 H   0  0  0  0  0  0  0  0  0  0  0  0
   -0.8899   -1.3520    1.6511 H   0  0  0  0  0  0  0  0  0  0  0  0
   -2.3864    0.5065    1.3923 H   0  0  0  0  0  0  0  0  0  0  0  0
   -3.2079   -0.5577    0.0843 H   0  0  0  0  0  0  0  0  0  0  0  0
   -1.4831    1.6968   -0.4159 H   0  0  0  0  0  0  0  0  0  0  0  0
   -1.8095    0.4098   -1.6311 H   0  0  0  0  0  0  0  0  0  0  0  0
  1  2  1  0
  2  3  1  0
  3  4  1  0
  4  5  1  0
  5  6  1  0
  6  7  1  0
  7  8  1  0
  8  9  1  0
  5  2  1  0
  9  6  1  0
  6  3  1  0
  1 10  1  0
  2 11  1  0
  3 12  1  0
  4 13  1  0
  4 14  1  0
  5 15  1  0
  7 16  1  0
  7 17  1  0
  8 18  1  0
  8 19  1  0
  9 20  1  0
  9 21  1  0
M  END
