
     RDKit          3D

 21 21  0  0  0  0  0  0  0  0999 V2000
   -2.4395    1.0137    0.2829 O   0  0  0  0  0  0  0  0  0  0  0  0
   -1.1905    0.6371   -0.2138 C   0  0  0  0  0  0  0  0  0  0  0  0
   -0.1747    1.5106    0.3434 C   0  0  0  0  0  0  0  0  0  0  0  0
    1.1383    1.3905    0.2364 C   0  0  0  0  0  0  0  0  0  0  0  0
    1.8772    0.3217   -0.4866 C   0  0  0  0  0  0  0  0  0  0  0  0
    1.4840   -1.0239    0.1331 C   0  0  0  0  0  0  0  0  0  0  0  0
    0.2073   -1.4428   -0.5284 C   0  0  0  0  0  0  0  0  0  0  0  0
   -1.0238   -0.8179    0.0231 C   0  0  0  0  0  0  0  0  0  0  0  0
   -2.1112   -1.4621   -0.5750 O   0  0  0  0  0  0  0  0  0  0  0  0
   -2.4709    2.0153    0.2499 H   0  0  0  0  0  0  0  0  0  0  0  0
   -1.2439    0.8009   -1.3199 H   0  0  0  0  0  0  0  0  0  0  0  0
   -0.4792    2.3816    0.9264 H   0  0  0  0  0  0  0  0  0  0  0  0
    1.7758    2.1320    0.7141 H   0  0  0  0  0  0  0  0  0  0  0  0
    1.5647    0.3095   -1.5675 H   0  0  0  0  0  0  0  0  0  0  0  0
    2.9677    0.4772   -0.4483 H   0  0  0  0  0  0  0  0  0  0  0  0
    2.2712   -1.7759   -0.0424 H   0  0  0  0  0  0  0  0  0  0  0  0
    1.3729   -0.8542    1.2243 H   0  0  0  0  0  0  0  0  0  0  0  0
    0.2742   -1.1870   -1.6103 H   0  0  0  0  0  0  0  0  0  0  0  0
    0.1189   -2.5421   -0.4005 H   0  0  0  0  0  0  0  0  0  0  0  0
   -1.0851   -1.0548    1.1149 H   0  0  0  0  0  0  0  0  0  0  0  0
   -2.8335   -0.8294   -0.8177 H   0  0  0  0  0  0  0  0  0  0  0  0
  1  2  1  0
  2  3  1  0
  3  4  2  0
  4  5  1  0
  5  6  1  0
  6  7  1  0
  7  8  1  0
  8  9  1  0
  8  2  1  0
  1 10  1  0
  2 11  1  0
  3 12  1  0
  4 13  1  0
  5 14  1  0
  5 15  1  0
  6 16  1  0
  6 17  1  0
  7 18  1  0
  7 19  1  0
  8 20  1  0
  9 21  1  0
M  END
