
     RDKit          3D

 18 19  0  0  0  0  0  0  0  0999 V2000
    2.1732   -1.0380    0.2916 O   0  0  0  0  0  0  0  0  0  0  0  0
    1.8672    0.3220    0.2644 C   0  0  0  0  0  0  0  0  0  0  0  0
    1.2516    0.8917   -0.9415 C   0  0  0  0  0  0  0  0  0  0  0  0
    0.4745    0.8051    0.3298 C   0  0  0  0  0  0  0  0  0  0  0  0
   -0.6676   -0.1883    0.3910 C   0  0  0  0  0  0  0  0  0  0  0  0
   -0.5654   -1.0140    1.5315 O   0  0  0  0  0  0  0  0  0  0  0  0
   -2.0276    0.2091   -0.0520 C   0  0  0  0  0  0  0  0  0  0  0  0
   -1.2329   -0.7828   -0.8435 C   0  0  0  0  0  0  0  0  0  0  0  0
    2.1744   -1.3244    1.2406 H   0  0  0  0  0  0  0  0  0  0  0  0
    2.6211    0.9358    0.8131 H   0  0  0  0  0  0  0  0  0  0  0  0
    0.9294    0.2970   -1.7978 H   0  0  0  0  0  0  0  0  0  0  0  0
    1.6081    1.9139   -1.2364 H   0  0  0  0  0  0  0  0  0  0  0  0
    0.2751    1.7576    0.8789 H   0  0  0  0  0  0  0  0  0  0  0  0
   -1.4103   -1.5083    1.6617 H   0  0  0  0  0  0  0  0  0  0  0  0
   -2.1237    1.2429   -0.4535 H   0  0  0  0  0  0  0  0  0  0  0  0
   -2.8674   -0.1891    0.5342 H   0  0  0  0  0  0  0  0  0  0  0  0
   -0.9619   -0.4642   -1.8489 H   0  0  0  0  0  0  0  0  0  0  0  0
   -1.5178   -1.8660   -0.7632 H   0  0  0  0  0  0  0  0  0  0  0  0
  1  2  1  0
  2  3  1  0
  3  4  1  0
  4  5  1  0
  5  6  1  0
  5  7  1  0
  7  8  1  0
  4  2  1  0
  8  5  1  0
  1  9  1  0
  2 10  1  0
  3 11  1  0
  3 12  1  0
  4 13  1  0
  6 14  1  0
  7 15  1  0
  7 16  1  0
  8 17  1  0
  8 18  1  0
M  END
