
     RDKit          3D

 21 22  0  0  0  0  0  0  0  0999 V2000
    2.1952    1.5319    0.1998 O   0  0  0  0  0  0  0  0  0  0  0  0
    0.9972    0.8468    0.3741 C   0  0  0  0  0  0  0  0  0  0  0  0
   -0.1198    1.7644   -0.0811 C   0  0  0  0  0  0  0  0  0  0  0  0
   -1.4699    1.2795    0.1986 C   0  0  0  0  0  0  0  0  0  0  0  0
   -1.9509    0.0537    0.0826 C   0  0  0  0  0  0  0  0  0  0  0  0
   -1.3270   -1.2444   -0.3581 C   0  0  0  0  0  0  0  0  0  0  0  0
   -0.0372   -1.3292    0.3711 C   0  0  0  0  0  0  0  0  0  0  0  0
    1.2569   -1.7399   -0.0924 C   0  0  0  0  0  0  0  0  0  0  0  0
    0.9135   -0.3863   -0.4432 C   0  0  0  0  0  0  0  0  0  0  0  0
    2.9425    0.9277    0.0326 H   0  0  0  0  0  0  0  0  0  0  0  0
    0.9203    0.6367    1.4752 H   0  0  0  0  0  0  0  0  0  0  0  0
    0.0778    2.7518    0.4120 H   0  0  0  0  0  0  0  0  0  0  0  0
    0.0103    1.9066   -1.1738 H   0  0  0  0  0  0  0  0  0  0  0  0
   -2.1749    2.0390    0.5519 H   0  0  0  0  0  0  0  0  0  0  0  0
   -2.9946   -0.0449    0.3552 H   0  0  0  0  0  0  0  0  0  0  0  0
   -1.9854   -2.0932   -0.1595 H   0  0  0  0  0  0  0  0  0  0  0  0
   -1.1477   -1.1423   -1.4677 H   0  0  0  0  0  0  0  0  0  0  0  0
   -0.1488   -1.1092    1.4610 H   0  0  0  0  0  0  0  0  0  0  0  0
    1.3697   -2.4755   -0.9317 H   0  0  0  0  0  0  0  0  0  0  0  0
    2.0265   -1.9816    0.6980 H   0  0  0  0  0  0  0  0  0  0  0  0
    0.6463   -0.1915   -1.5043 H   0  0  0  0  0  0  0  0  0  0  0  0
  1  2  1  0
  2  3  1  0
  3  4  1  0
  4  5  2  0
  5  6  1  0
  6  7  1  0
  7  8  1  0
  8  9  1  0
  9  2  1  0
  9  7  1  0
  1 10  1  0
  2 11  1  0
  3 12  1  0
  3 13  1  0
  4 14  1  0
  5 15  1  0
  6 16  1  0
  6 17  1  0
  7 18  1  0
  8 19  1  0
  8 20  1  0
  9 21  1  0
M  END
