
     RDKit          3D

 17 18  0  0  0  0  0  0  0  0999 V2000
   -2.0962   -0.7935    0.5968 O   0  0  0  0  0  0  0  0  0  0  0  0
   -1.0438   -0.4651   -0.2744 C   0  0  0  0  0  0  0  0  0  0  0  0
   -0.9319    1.0115   -0.4518 C   0  0  0  0  0  0  0  0  0  0  0  0
   -0.0354    1.6383    0.3526 O   0  0  0  0  0  0  0  0  0  0  0  0
    0.9436    0.8607    0.9027 C   0  0  0  0  0  0  0  0  0  0  0  0
    1.9019    0.3340   -0.1031 C   0  0  0  0  0  0  0  0  0  0  0  0
    1.3996   -0.8259   -0.5137 C   0  0  0  0  0  0  0  0  0  0  0  0
    0.2173   -1.0818    0.3232 C   0  0  0  0  0  0  0  0  0  0  0  0
    0.4730   -0.3159    1.4839 O   0  0  0  0  0  0  0  0  0  0  0  0
   -2.9625   -0.8032    0.1504 H   0  0  0  0  0  0  0  0  0  0  0  0
   -1.2322   -0.9453   -1.2665 H   0  0  0  0  0  0  0  0  0  0  0  0
   -1.9498    1.4494   -0.2294 H   0  0  0  0  0  0  0  0  0  0  0  0
   -0.7337    1.2731   -1.5131 H   0  0  0  0  0  0  0  0  0  0  0  0
    1.4392    1.4336    1.7103 H   0  0  0  0  0  0  0  0  0  0  0  0
    2.8147    0.8222   -0.4148 H   0  0  0  0  0  0  0  0  0  0  0  0
    1.7703   -1.4631   -1.2988 H   0  0  0  0  0  0  0  0  0  0  0  0
    0.0259   -2.1291    0.5456 H   0  0  0  0  0  0  0  0  0  0  0  0
  1  2  1  0
  2  3  1  0
  3  4  1  0
  4  5  1  0
  5  6  1  0
  6  7  2  0
  7  8  1  0
  8  9  1  0
  8  2  1  0
  9  5  1  0
  1 10  1  0
  2 11  1  0
  3 12  1  0
  3 13  1  0
  5 14  1  0
  6 15  1  0
  7 16  1  0
  8 17  1  0
M  END
