
     RDKit          3D

 21 21  0  0  0  0  0  0  0  0999 V2000
    2.1270   -1.7417    0.5780 O   0  0  0  0  0  0  0  0  0  0  0  0
    1.0949   -0.8249    0.4726 C   0  0  0  0  0  0  0  0  0  0  0  0
    1.5586    0.5134    0.0430 C   0  0  0  0  0  0  0  0  0  0  0  0
    0.8558    1.6102   -0.0762 C   0  0  0  0  0  0  0  0  0  0  0  0
   -0.5840    1.8194    0.1819 C   0  0  0  0  0  0  0  0  0  0  0  0
   -1.3461    0.5271    0.3301 C   0  0  0  0  0  0  0  0  0  0  0  0
   -1.0741   -0.4629   -0.7466 C   0  0  0  0  0  0  0  0  0  0  0  0
   -2.1995   -1.3212   -0.8104 O   0  0  0  0  0  0  0  0  0  0  0  0
    0.1192   -1.3193   -0.5608 C   0  0  0  0  0  0  0  0  0  0  0  0
    2.9005   -1.4232    1.0921 H   0  0  0  0  0  0  0  0  0  0  0  0
    0.6438   -0.7094    1.4737 H   0  0  0  0  0  0  0  0  0  0  0  0
    2.5961    0.5935   -0.1999 H   0  0  0  0  0  0  0  0  0  0  0  0
    1.3964    2.4738   -0.4053 H   0  0  0  0  0  0  0  0  0  0  0  0
   -0.6485    2.3293    1.1885 H   0  0  0  0  0  0  0  0  0  0  0  0
   -1.0119    2.4956   -0.5609 H   0  0  0  0  0  0  0  0  0  0  0  0
   -2.4377    0.8109    0.2386 H   0  0  0  0  0  0  0  0  0  0  0  0
   -1.2553    0.0925    1.3453 H   0  0  0  0  0  0  0  0  0  0  0  0
   -1.0786    0.0902   -1.7219 H   0  0  0  0  0  0  0  0  0  0  0  0
   -2.2115   -1.8264    0.0496 H   0  0  0  0  0  0  0  0  0  0  0  0
   -0.1309   -2.3949   -0.3729 H   0  0  0  0  0  0  0  0  0  0  0  0
    0.6859   -1.3320   -1.5385 H   0  0  0  0  0  0  0  0  0  0  0  0
  1  2  1  0
  2  3  1  0
  3  4  2  0
  4  5  1  0
  5  6  1  0
  6  7  1  0
  7  8  1  0
  7  9  1  0
  9  2  1  0
  1 10  1  0
  2 11  1  0
  3 12  1  0
  4 13  1  0
  5 14  1  0
  5 15  1  0
  6 16  1  0
  6 17  1  0
  7 18  1  0
  8 19  1  0
  9 20  1  0
  9 21  1  0
M  END
