
     RDKit          3D

 21 22  0  0  0  0  0  0  0  0999 V2000
    2.7060   -0.3341    0.1643 O   0  0  0  0  0  0  0  0  0  0  0  0
    1.3580   -0.1738   -0.0614 C   0  0  0  0  0  0  0  0  0  0  0  0
    0.8080    1.0717    0.6418 C   0  0  0  0  0  0  0  0  0  0  0  0
   -0.3044    1.5765   -0.2480 C   0  0  0  0  0  0  0  0  0  0  0  0
   -1.5972    0.8601   -0.0638 C   0  0  0  0  0  0  0  0  0  0  0  0
   -1.7819    0.0713    1.0958 O   0  0  0  0  0  0  0  0  0  0  0  0
   -1.7571   -0.4791   -0.2858 C   0  0  0  0  0  0  0  0  0  0  0  0
   -0.6854   -1.4612   -0.4353 C   0  0  0  0  0  0  0  0  0  0  0  0
    0.5149   -1.2902    0.4492 C   0  0  0  0  0  0  0  0  0  0  0  0
    3.2146    0.0897   -0.5950 H   0  0  0  0  0  0  0  0  0  0  0  0
    1.2057   -0.0974   -1.1703 H   0  0  0  0  0  0  0  0  0  0  0  0
    1.5911    1.8488    0.6916 H   0  0  0  0  0  0  0  0  0  0  0  0
    0.4786    0.8450    1.6637 H   0  0  0  0  0  0  0  0  0  0  0  0
    0.0699    1.5249   -1.2935 H   0  0  0  0  0  0  0  0  0  0  0  0
   -0.3951    2.6596   -0.0149 H   0  0  0  0  0  0  0  0  0  0  0  0
   -2.4700    1.5471   -0.2109 H   0  0  0  0  0  0  0  0  0  0  0  0
   -2.7733   -0.8807   -0.5847 H   0  0  0  0  0  0  0  0  0  0  0  0
   -1.0744   -2.4840   -0.2202 H   0  0  0  0  0  0  0  0  0  0  0  0
   -0.3015   -1.5161   -1.4886 H   0  0  0  0  0  0  0  0  0  0  0  0
    1.0576   -2.2560    0.4808 H   0  0  0  0  0  0  0  0  0  0  0  0
    0.1362   -1.1221    1.4850 H   0  0  0  0  0  0  0  0  0  0  0  0
  1  2  1  0
  2  3  1  0
  3  4  1  0
  4  5  1  0
  5  6  1  0
  6  7  1  0
  7  8  1  0
  8  9  1  0
  9  2  1  0
  7  5  1  0
  1 10  1  0
  2 11  1  0
  3 12  1  0
  3 13  1  0
  4 14  1  0
  4 15  1  0
  5 16  1  0
  7 17  1  0
  8 18  1  0
  8 19  1  0
  9 20  1  0
  9 21  1  0
M  END
