
     RDKit          3D

 19 20  0  0  0  0  0  0  0  0999 V2000
   -2.3969    0.1187    0.3178 O   0  0  0  0  0  0  0  0  0  0  0  0
   -1.0577    0.3894    0.3513 C   0  0  0  0  0  0  0  0  0  0  0  0
   -0.2101   -0.8817    0.5155 C   0  0  0  0  0  0  0  0  0  0  0  0
    1.1434   -0.4070    0.9963 C   0  0  0  0  0  0  0  0  0  0  0  0
    1.6399    0.6630    0.1127 C   0  0  0  0  0  0  0  0  0  0  0  0
    0.8708    1.4122   -0.6702 C   0  0  0  0  0  0  0  0  0  0  0  0
   -0.4998    0.8559   -0.9784 C   0  0  0  0  0  0  0  0  0  0  0  0
   -0.2917   -0.2802   -1.7388 O   0  0  0  0  0  0  0  0  0  0  0  0
   -0.1704   -1.3590   -0.9061 C   0  0  0  0  0  0  0  0  0  0  0  0
   -2.7633    0.2619    1.2394 H   0  0  0  0  0  0  0  0  0  0  0  0
   -0.7666    1.1171    1.1334 H   0  0  0  0  0  0  0  0  0  0  0  0
   -0.7305   -1.5315    1.2098 H   0  0  0  0  0  0  0  0  0  0  0  0
    1.8801   -1.2258    1.0789 H   0  0  0  0  0  0  0  0  0  0  0  0
    0.9985    0.0315    2.0054 H   0  0  0  0  0  0  0  0  0  0  0  0
    2.7186    0.8949    0.0641 H   0  0  0  0  0  0  0  0  0  0  0  0
    1.1576    2.3596   -1.0833 H   0  0  0  0  0  0  0  0  0  0  0  0
   -1.1381    1.6013   -1.4545 H   0  0  0  0  0  0  0  0  0  0  0  0
   -1.0812   -2.0047   -1.0670 H   0  0  0  0  0  0  0  0  0  0  0  0
    0.6972   -2.0156   -1.1260 H   0  0  0  0  0  0  0  0  0  0  0  0
  1  2  1  0
  2  3  1  0
  3  4  1  0
  4  5  1  0
  5  6  2  0
  6  7  1  0
  7  8  1  0
  8  9  1  0
  7  2  1  0
  9  3  1  0
  1 10  1  0
  2 11  1  0
  3 12  1  0
  4 13  1  0
  4 14  1  0
  5 15  1  0
  6 16  1  0
  7 17  1  0
  9 18  1  0
  9 19  1  0
M  END
