
     RDKit          3D

 15 16  0  0  0  0  0  0  0  0999 V2000
   -2.3428    0.6575    0.3841 O   0  0  0  0  0  0  0  0  0  0  0  0
   -1.4273    0.0800   -0.5068 C   0  0  0  0  0  0  0  0  0  0  0  0
   -0.8091   -1.2375   -0.1997 C   0  0  0  0  0  0  0  0  0  0  0  0
   -0.0174   -0.0064   -0.2764 C   0  0  0  0  0  0  0  0  0  0  0  0
    0.7803    0.4699    0.8553 C   0  0  0  0  0  0  0  0  0  0  0  0
    1.8994    0.1749   -0.1321 C   0  0  0  0  0  0  0  0  0  0  0  0
    0.9787    0.2079   -1.1995 O   0  0  0  0  0  0  0  0  0  0  0  0
   -2.3246    1.6373    0.1709 H   0  0  0  0  0  0  0  0  0  0  0  0
   -1.7737    0.2173   -1.5741 H   0  0  0  0  0  0  0  0  0  0  0  0
   -0.6329   -1.9931   -0.9781 H   0  0  0  0  0  0  0  0  0  0  0  0
   -0.8995   -1.6899    0.8216 H   0  0  0  0  0  0  0  0  0  0  0  0
    0.7414    1.5180    1.1585 H   0  0  0  0  0  0  0  0  0  0  0  0
    0.8786   -0.1807    1.7372 H   0  0  0  0  0  0  0  0  0  0  0  0
    2.3193   -0.8466   -0.0703 H   0  0  0  0  0  0  0  0  0  0  0  0
    2.6296    0.9915   -0.1907 H   0  0  0  0  0  0  0  0  0  0  0  0
  1  2  1  0
  2  3  1  0
  3  4  1  0
  4  5  1  0
  5  6  1  0
  6  7  1  0
  4  2  1  0
  7  4  1  0
  1  8  1  0
  2  9  1  0
  3 10  1  0
  3 11  1  0
  5 12  1  0
  5 13  1  0
  6 14  1  0
  6 15  1  0
M  END
