
     RDKit          3D

 19 21  0  0  0  0  0  0  0  0999 V2000
    1.8024    0.9204    1.0948 O   0  0  0  0  0  0  0  0  0  0  0  0
    1.7360    0.2310   -0.1216 C   0  0  0  0  0  0  0  0  0  0  0  0
    1.2896   -1.1978    0.0467 C   0  0  0  0  0  0  0  0  0  0  0  0
    0.0889   -0.9544   -0.8799 C   0  0  0  0  0  0  0  0  0  0  0  0
    0.5097    0.5350   -0.9144 C   0  0  0  0  0  0  0  0  0  0  0  0
   -0.7869    0.1031   -0.4863 C   0  0  0  0  0  0  0  0  0  0  0  0
   -2.0948    0.4977   -0.9788 C   0  0  0  0  0  0  0  0  0  0  0  0
   -2.2820    1.2298    0.2185 O   0  0  0  0  0  0  0  0  0  0  0  0
   -1.4324    0.2826    0.8265 C   0  0  0  0  0  0  0  0  0  0  0  0
    2.7709    0.9466    1.3305 H   0  0  0  0  0  0  0  0  0  0  0  0
    2.6523    0.3457   -0.7284 H   0  0  0  0  0  0  0  0  0  0  0  0
    0.9919   -1.4093    1.0943 H   0  0  0  0  0  0  0  0  0  0  0  0
    1.9581   -1.9655   -0.3349 H   0  0  0  0  0  0  0  0  0  0  0  0
    0.0426   -1.4931   -1.8327 H   0  0  0  0  0  0  0  0  0  0  0  0
    0.6216    0.9576   -1.9497 H   0  0  0  0  0  0  0  0  0  0  0  0
   -2.8922   -0.2800   -1.0226 H   0  0  0  0  0  0  0  0  0  0  0  0
   -2.1472    1.1380   -1.8961 H   0  0  0  0  0  0  0  0  0  0  0  0
   -2.0795   -0.5724    1.1661 H   0  0  0  0  0  0  0  0  0  0  0  0
   -0.7492    0.6848    1.5799 H   0  0  0  0  0  0  0  0  0  0  0  0
  1  2  1  0
  2  3  1  0
  3  4  1  0
  4  5  1  0
  5  6  1  0
  6  7  1  0
  7  8  1  0
  8  9  1  0
  5  2  1  0
  9  6  1  0
  6  4  1  0
  1 10  1  0
  2 11  1  0
  3 12  1  0
  3 13  1  0
  4 14  1  0
  5 15  1  0
  7 16  1  0
  7 17  1  0
  9 18  1  0
  9 19  1  0
M  END
