
     RDKit          3D

 21 22  0  0  0  0  0  0  0  0999 V2000
    2.0299    1.2485    0.5358 O   0  0  0  0  0  0  0  0  0  0  0  0
    1.7205    0.1935   -0.2991 C   0  0  0  0  0  0  0  0  0  0  0  0
    1.1368   -1.0182    0.4208 C   0  0  0  0  0  0  0  0  0  0  0  0
    0.0238   -1.0195   -0.5631 C   0  0  0  0  0  0  0  0  0  0  0  0
   -1.3555   -1.2493   -0.0538 C   0  0  0  0  0  0  0  0  0  0  0  0
   -1.8954   -0.1597    0.7754 C   0  0  0  0  0  0  0  0  0  0  0  0
   -1.4585    1.0639    0.5937 C   0  0  0  0  0  0  0  0  0  0  0  0
   -0.4410    1.4554   -0.4008 C   0  0  0  0  0  0  0  0  0  0  0  0
    0.3491    0.3540   -0.9696 C   0  0  0  0  0  0  0  0  0  0  0  0
    2.4860    0.9774    1.3678 H   0  0  0  0  0  0  0  0  0  0  0  0
    2.5339   -0.0548   -1.0202 H   0  0  0  0  0  0  0  0  0  0  0  0
    1.8716   -1.8491    0.3480 H   0  0  0  0  0  0  0  0  0  0  0  0
    0.8849   -0.8456    1.4832 H   0  0  0  0  0  0  0  0  0  0  0  0
    0.2465   -1.7554   -1.3877 H   0  0  0  0  0  0  0  0  0  0  0  0
   -1.4309   -2.1920    0.5069 H   0  0  0  0  0  0  0  0  0  0  0  0
   -2.0291   -1.3494   -0.9500 H   0  0  0  0  0  0  0  0  0  0  0  0
   -2.6448   -0.3724    1.5254 H   0  0  0  0  0  0  0  0  0  0  0  0
   -1.8772    1.8460    1.2221 H   0  0  0  0  0  0  0  0  0  0  0  0
    0.2660    2.1586    0.1304 H   0  0  0  0  0  0  0  0  0  0  0  0
   -0.9223    2.0742   -1.1872 H   0  0  0  0  0  0  0  0  0  0  0  0
    0.5057    0.4938   -2.0780 H   0  0  0  0  0  0  0  0  0  0  0  0
  1  2  1  0
  2  3  1  0
  3  4  1  0
  4  5  1  0
  5  6  1  0
  6  7  2  0
  7  8  1  0
  8  9  1  0
  9  2  1  0
  9  4  1  0
  1 10  1  0
  2 11  1  0
  3 12  1  0
  3 13  1  0
  4 14  1  0
  5 15  1  0
  5 16  1  0
  6 17  1  0
  7 18  1  0
  8 19  1  0
  8 20  1  0
  9 21  1  0
M  END
