
     RDKit          3D

 17 17  0  0  0  0  0  0  0  0999 V2000
    2.3553    0.1638    0.5498 O   0  0  0  0  0  0  0  0  0  0  0  0
    1.0878    0.1473    0.0129 C   0  0  0  0  0  0  0  0  0  0  0  0
    0.0432    0.7107    0.9837 C   0  0  0  0  0  0  0  0  0  0  0  0
   -1.1929    0.8969    0.0927 C   0  0  0  0  0  0  0  0  0  0  0  0
   -1.5139   -0.4073   -0.5695 C   0  0  0  0  0  0  0  0  0  0  0  0
   -0.7115   -1.4454   -0.2505 O   0  0  0  0  0  0  0  0  0  0  0  0
    0.6268   -1.2730   -0.2761 C   0  0  0  0  0  0  0  0  0  0  0  0
    2.9929    0.3740   -0.1947 H   0  0  0  0  0  0  0  0  0  0  0  0
    1.0520    0.7374   -0.9484 H   0  0  0  0  0  0  0  0  0  0  0  0
    0.3624    1.6348    1.4553 H   0  0  0  0  0  0  0  0  0  0  0  0
   -0.2415   -0.0989    1.6984 H   0  0  0  0  0  0  0  0  0  0  0  0
   -0.8677    1.6572   -0.6769 H   0  0  0  0  0  0  0  0  0  0  0  0
   -2.0107    1.3542    0.6427 H   0  0  0  0  0  0  0  0  0  0  0  0
   -1.6142   -0.2215   -1.6774 H   0  0  0  0  0  0  0  0  0  0  0  0
   -2.5651   -0.6712   -0.2476 H   0  0  0  0  0  0  0  0  0  0  0  0
    1.0510   -1.8749    0.5844 H   0  0  0  0  0  0  0  0  0  0  0  0
    1.1462   -1.6841   -1.1787 H   0  0  0  0  0  0  0  0  0  0  0  0
  1  2  1  0
  2  3  1  0
  3  4  1  0
  4  5  1  0
  5  6  1  0
  6  7  1  0
  7  2  1  0
  1  8  1  0
  2  9  1  0
  3 10  1  0
  3 11  1  0
  4 12  1  0
  4 13  1  0
  5 14  1  0
  5 15  1  0
  7 16  1  0
  7 17  1  0
M  END
