
     RDKit          3D

 19 20  0  0  0  0  0  0  0  0999 V2000
    2.9330    0.2946   -0.7826 O   0  0  0  0  0  0  0  0  0  0  0  0
    1.7934   -0.0799   -0.0493 C   0  0  0  0  0  0  0  0  0  0  0  0
    1.0817    1.1469    0.3284 C   0  0  0  0  0  0  0  0  0  0  0  0
   -0.2463    1.2252    0.3396 C   0  0  0  0  0  0  0  0  0  0  0  0
   -0.9780   -0.0086   -0.0549 C   0  0  0  0  0  0  0  0  0  0  0  0
   -1.9477   -0.5609    0.8969 C   0  0  0  0  0  0  0  0  0  0  0  0
   -2.4900    0.1320   -0.3060 C   0  0  0  0  0  0  0  0  0  0  0  0
   -0.3302   -0.7168   -1.0122 O   0  0  0  0  0  0  0  0  0  0  0  0
    0.9509   -1.0817   -0.7701 C   0  0  0  0  0  0  0  0  0  0  0  0
    3.7167    0.4159   -0.2113 H   0  0  0  0  0  0  0  0  0  0  0  0
    2.1879   -0.5702    0.8742 H   0  0  0  0  0  0  0  0  0  0  0  0
    1.7040    2.0120    0.6060 H   0  0  0  0  0  0  0  0  0  0  0  0
   -0.7604    2.1466    0.6234 H   0  0  0  0  0  0  0  0  0  0  0  0
   -2.1246   -1.6388    1.0415 H   0  0  0  0  0  0  0  0  0  0  0  0
   -2.0959    0.0217    1.8517 H   0  0  0  0  0  0  0  0  0  0  0  0
   -2.9484   -0.5463   -1.0568 H   0  0  0  0  0  0  0  0  0  0  0  0
   -2.8536    1.1678   -0.2722 H   0  0  0  0  0  0  0  0  0  0  0  0
    1.4496   -1.2667   -1.7680 H   0  0  0  0  0  0  0  0  0  0  0  0
    0.9579   -2.0925   -0.2784 H   0  0  0  0  0  0  0  0  0  0  0  0
  1  2  1  0
  2  3  1  0
  3  4  2  0
  4  5  1  0
  5  6  1  0
  6  7  1  0
  5  8  1  0
  8  9  1  0
  9  2  1  0
  7  5  1  0
  1 10  1  0
  2 11  1  0
  3 12  1  0
  4 13  1  0
  6 14  1  0
  6 15  1  0
  7 16  1  0
  7 17  1  0
  9 18  1  0
  9 19  1  0
M  END
