
     RDKit          3D

 18 19  0  0  0  0  0  0  0  0999 V2000
    0.6028    2.1097   -0.1583 O   0  0  0  0  0  0  0  0  0  0  0  0
   -0.1274    1.1385    0.5008 C   0  0  0  0  0  0  0  0  0  0  0  0
   -1.3602    0.6525   -0.2784 C   0  0  0  0  0  0  0  0  0  0  0  0
   -1.0201   -0.7421    0.2776 C   0  0  0  0  0  0  0  0  0  0  0  0
   -1.1757   -1.7682   -0.6211 O   0  0  0  0  0  0  0  0  0  0  0  0
    0.3697   -0.2314    0.3878 C   0  0  0  0  0  0  0  0  0  0  0  0
    1.3761   -0.5975   -0.6291 C   0  0  0  0  0  0  0  0  0  0  0  0
    1.5253   -0.8687    0.8729 C   0  0  0  0  0  0  0  0  0  0  0  0
    0.0013    2.8385   -0.4342 H   0  0  0  0  0  0  0  0  0  0  0  0
   -0.4592    1.4348    1.5297 H   0  0  0  0  0  0  0  0  0  0  0  0
   -1.2150    0.6906   -1.3751 H   0  0  0  0  0  0  0  0  0  0  0  0
   -2.3079    1.0597    0.0589 H   0  0  0  0  0  0  0  0  0  0  0  0
   -1.5928   -0.8564    1.2338 H   0  0  0  0  0  0  0  0  0  0  0  0
   -1.5112   -1.3861   -1.4649 H   0  0  0  0  0  0  0  0  0  0  0  0
    1.0998   -1.4288   -1.2906 H   0  0  0  0  0  0  0  0  0  0  0  0
    1.9397    0.2312   -1.0745 H   0  0  0  0  0  0  0  0  0  0  0  0
    1.5123   -1.9613    1.1063 H   0  0  0  0  0  0  0  0  0  0  0  0
    2.3425   -0.3148    1.3583 H   0  0  0  0  0  0  0  0  0  0  0  0
  1  2  1  0
  2  3  1  0
  3  4  1  0
  4  5  1  0
  4  6  1  0
  6  7  1  0
  7  8  1  0
  6  2  1  0
  8  6  1  0
  1  9  1  0
  2 10  1  0
  3 11  1  0
  3 12  1  0
  4 13  1  0
  5 14  1  0
  7 15  1  0
  7 16  1  0
  8 17  1  0
  8 18  1  0
M  END
