
     RDKit          3D

 19 20  0  0  0  0  0  0  0  0999 V2000
   -1.2608    1.5316   -0.3025 O   0  0  0  0  0  0  0  0  0  0  0  0
   -0.9982    0.5362    0.6281 C   0  0  0  0  0  0  0  0  0  0  0  0
   -1.6807   -0.7579    0.3450 C   0  0  0  0  0  0  0  0  0  0  0  0
   -0.8642   -1.7568   -0.1207 O   0  0  0  0  0  0  0  0  0  0  0  0
    0.1675   -1.3188   -0.9342 C   0  0  0  0  0  0  0  0  0  0  0  0
    1.1457   -0.5104   -0.1618 C   0  0  0  0  0  0  0  0  0  0  0  0
    1.3395    0.9354   -0.3450 C   0  0  0  0  0  0  0  0  0  0  0  0
    2.5897    1.4824    0.0119 O   0  0  0  0  0  0  0  0  0  0  0  0
    0.4935    0.4327    0.7581 C   0  0  0  0  0  0  0  0  0  0  0  0
   -2.0158    1.3611   -0.8845 H   0  0  0  0  0  0  0  0  0  0  0  0
   -1.4175    0.9191    1.6060 H   0  0  0  0  0  0  0  0  0  0  0  0
   -2.5045   -0.5992   -0.3871 H   0  0  0  0  0  0  0  0  0  0  0  0
   -2.1973   -1.1681    1.2624 H   0  0  0  0  0  0  0  0  0  0  0  0
    0.6813   -2.2520   -1.3071 H   0  0  0  0  0  0  0  0  0  0  0  0
   -0.2107   -0.8188   -1.8598 H   0  0  0  0  0  0  0  0  0  0  0  0
    2.0330   -1.0711    0.2421 H   0  0  0  0  0  0  0  0  0  0  0  0
    0.9319    1.3983   -1.2548 H   0  0  0  0  0  0  0  0  0  0  0  0
    2.8531    1.1204    0.9085 H   0  0  0  0  0  0  0  0  0  0  0  0
    0.9145    0.5359    1.7954 H   0  0  0  0  0  0  0  0  0  0  0  0
  1  2  1  0
  2  3  1  0
  3  4  1  0
  4  5  1  0
  5  6  1  0
  6  7  1  0
  7  8  1  0
  7  9  1  0
  9  2  1  0
  9  6  1  0
  1 10  1  0
  2 11  1  0
  3 12  1  0
  3 13  1  0
  5 14  1  0
  5 15  1  0
  6 16  1  0
  7 17  1  0
  8 18  1  0
  9 19  1  0
M  END
