
     RDKit          3D

 19 21  0  0  0  0  0  0  0  0999 V2000
    1.9641    1.3806    0.4811 O   0  0  0  0  0  0  0  0  0  0  0  0
    1.7392    0.3891   -0.4549 C   0  0  0  0  0  0  0  0  0  0  0  0
    1.5743   -1.0150    0.0847 C   0  0  0  0  0  0  0  0  0  0  0  0
    0.4931   -0.3325   -0.6076 C   0  0  0  0  0  0  0  0  0  0  0  0
   -0.0453   -0.7370   -1.8082 O   0  0  0  0  0  0  0  0  0  0  0  0
   -1.3238   -0.2348   -1.4700 C   0  0  0  0  0  0  0  0  0  0  0  0
   -0.8191    0.0047   -0.0984 C   0  0  0  0  0  0  0  0  0  0  0  0
   -1.2113    1.0651    0.7883 C   0  0  0  0  0  0  0  0  0  0  0  0
   -1.4539   -0.4304    1.1272 C   0  0  0  0  0  0  0  0  0  0  0  0
    2.8178    1.1419    0.9449 H   0  0  0  0  0  0  0  0  0  0  0  0
    2.4185    0.4138   -1.3521 H   0  0  0  0  0  0  0  0  0  0  0  0
    2.0584   -1.8631   -0.4195 H   0  0  0  0  0  0  0  0  0  0  0  0
    1.4781   -1.1407    1.1953 H   0  0  0  0  0  0  0  0  0  0  0  0
   -2.1058   -1.0058   -1.6086 H   0  0  0  0  0  0  0  0  0  0  0  0
   -1.5549    0.7063   -2.0153 H   0  0  0  0  0  0  0  0  0  0  0  0
   -2.1427    1.6484    0.5740 H   0  0  0  0  0  0  0  0  0  0  0  0
   -0.4939    1.5776    1.4530 H   0  0  0  0  0  0  0  0  0  0  0  0
   -0.8723   -0.8178    2.0026 H   0  0  0  0  0  0  0  0  0  0  0  0
   -2.5205   -0.7506    1.1837 H   0  0  0  0  0  0  0  0  0  0  0  0
  1  2  1  0
  2  3  1  0
  3  4  1  0
  4  5  1  0
  5  6  1  0
  6  7  1  0
  7  8  1  0
  8  9  1  0
  4  2  1  0
  9  7  1  0
  7  4  1  0
  1 10  1  0
  2 11  1  0
  3 12  1  0
  3 13  1  0
  6 14  1  0
  6 15  1  0
  8 16  1  0
  8 17  1  0
  9 18  1  0
  9 19  1  0
M  END
