
     RDKit          3D

 14 16  0  0  0  0  0  0  0  0999 V2000
    1.5178    0.4443   -0.8830 O   0  0  0  0  0  0  0  0  0  0  0  0
    0.8844    0.5931    0.3366 C   0  0  0  0  0  0  0  0  0  0  0  0
   -0.5462    1.0195    0.3089 C   0  0  0  0  0  0  0  0  0  0  0  0
   -0.7293    0.2037    1.4530 O   0  0  0  0  0  0  0  0  0  0  0  0
    0.2184   -0.6537    0.8458 C   0  0  0  0  0  0  0  0  0  0  0  0
   -0.5739   -1.1765   -0.3216 C   0  0  0  0  0  0  0  0  0  0  0  0
   -1.9667   -0.9397   -0.3453 O   0  0  0  0  0  0  0  0  0  0  0  0
   -1.1986    0.1696   -0.7491 C   0  0  0  0  0  0  0  0  0  0  0  0
    2.2960   -0.1782   -0.7171 H   0  0  0  0  0  0  0  0  0  0  0  0
    1.4486    1.1585    1.0857 H   0  0  0  0  0  0  0  0  0  0  0  0
   -0.8092    2.0485    0.3966 H   0  0  0  0  0  0  0  0  0  0  0  0
    0.7507   -1.3259    1.4735 H   0  0  0  0  0  0  0  0  0  0  0  0
   -0.1238   -1.8078   -1.0817 H   0  0  0  0  0  0  0  0  0  0  0  0
   -1.1682    0.4446   -1.8023 H   0  0  0  0  0  0  0  0  0  0  0  0
  1  2  1  0
  2  3  1  0
  3  4  1  0
  4  5  1  0
  5  6  1  0
  6  7  1  0
  7  8  1  0
  5  2  1  0
  8  6  1  0
  8  3  1  0
  1  9  1  0
  2 10  1  0
  3 11  1  0
  5 12  1  0
  6 13  1  0
  8 14  1  0
M  END
