
     RDKit          3D

 19 19  0  0  0  0  0  0  0  0999 V2000
   -2.2030   -1.3414   -0.6587 O   0  0  0  0  0  0  0  0  0  0  0  0
   -0.9706   -0.6688   -0.6909 C   0  0  0  0  0  0  0  0  0  0  0  0
    0.0498   -1.4603    0.0353 C   0  0  0  0  0  0  0  0  0  0  0  0
    1.3136   -1.1768    0.2827 C   0  0  0  0  0  0  0  0  0  0  0  0
    2.0223    0.0543   -0.1320 C   0  0  0  0  0  0  0  0  0  0  0  0
    1.2738    1.3012    0.0765 C   0  0  0  0  0  0  0  0  0  0  0  0
   -0.0167    1.5219    0.0894 C   0  0  0  0  0  0  0  0  0  0  0  0
   -1.1912    0.6790   -0.0864 C   0  0  0  0  0  0  0  0  0  0  0  0
   -1.9103    0.5095    1.1000 O   0  0  0  0  0  0  0  0  0  0  0  0
   -2.2354   -2.0174    0.0519 H   0  0  0  0  0  0  0  0  0  0  0  0
   -0.7167   -0.5968   -1.7857 H   0  0  0  0  0  0  0  0  0  0  0  0
   -0.2905   -2.4079    0.4181 H   0  0  0  0  0  0  0  0  0  0  0  0
    1.9389   -1.8664    0.8329 H   0  0  0  0  0  0  0  0  0  0  0  0
    2.3318   -0.0855   -1.2005 H   0  0  0  0  0  0  0  0  0  0  0  0
    2.9899    0.1555    0.4490 H   0  0  0  0  0  0  0  0  0  0  0  0
    1.8885    2.1766    0.2455 H   0  0  0  0  0  0  0  0  0  0  0  0
   -0.2847    2.5877    0.2746 H   0  0  0  0  0  0  0  0  0  0  0  0
   -1.8992    1.2252   -0.7783 H   0  0  0  0  0  0  0  0  0  0  0  0
   -2.0905    1.4105    1.4765 H   0  0  0  0  0  0  0  0  0  0  0  0
  1  2  1  0
  2  3  1  0
  3  4  2  0
  4  5  1  0
  5  6  1  0
  6  7  2  0
  7  8  1  0
  8  9  1  0
  8  2  1  0
  1 10  1  0
  2 11  1  0
  3 12  1  0
  4 13  1  0
  5 14  1  0
  5 15  1  0
  6 16  1  0
  7 17  1  0
  8 18  1  0
  9 19  1  0
M  END
