
     RDKit          3D

 19 20  0  0  0  0  0  0  0  0999 V2000
   -2.8660    0.9744    0.5983 O   0  0  0  0  0  0  0  0  0  0  0  0
   -2.0514    0.3095   -0.3217 C   0  0  0  0  0  0  0  0  0  0  0  0
   -1.0506   -0.5699    0.1712 C   0  0  0  0  0  0  0  0  0  0  0  0
   -0.1321   -1.4856   -0.4899 C   0  0  0  0  0  0  0  0  0  0  0  0
    1.2053   -1.3051   -0.5045 C   0  0  0  0  0  0  0  0  0  0  0  0
    2.1157   -0.2821    0.0493 C   0  0  0  0  0  0  0  0  0  0  0  0
    1.4466    0.9137    0.6159 C   0  0  0  0  0  0  0  0  0  0  0  0
    0.2301    1.3966    0.3871 C   0  0  0  0  0  0  0  0  0  0  0  0
   -0.7362    0.8055   -0.5200 C   0  0  0  0  0  0  0  0  0  0  0  0
   -3.2524    0.3934    1.2700 H   0  0  0  0  0  0  0  0  0  0  0  0
   -2.6470    0.0009   -1.2161 H   0  0  0  0  0  0  0  0  0  0  0  0
   -0.9224   -0.6113    1.2878 H   0  0  0  0  0  0  0  0  0  0  0  0
   -0.4618   -2.3669   -1.0102 H   0  0  0  0  0  0  0  0  0  0  0  0
    1.7554   -2.0812   -1.0431 H   0  0  0  0  0  0  0  0  0  0  0  0
    2.7919    0.1186   -0.7654 H   0  0  0  0  0  0  0  0  0  0  0  0
    2.8218   -0.6997    0.7968 H   0  0  0  0  0  0  0  0  0  0  0  0
    2.0713    1.4526    1.3193 H   0  0  0  0  0  0  0  0  0  0  0  0
    0.0107    2.2881    0.9444 H   0  0  0  0  0  0  0  0  0  0  0  0
   -0.3287    0.7486   -1.5694 H   0  0  0  0  0  0  0  0  0  0  0  0
  1  2  1  0
  2  3  1  0
  3  4  1  0
  4  5  2  0
  5  6  1  0
  6  7  1  0
  7  8  2  0
  8  9  1  0
  9  2  1  0
  9  3  1  0
  1 10  1  0
  2 11  1  0
  3 12  1  0
  4 13  1  0
  5 14  1  0
  6 15  1  0
  6 16  1  0
  7 17  1  0
  8 18  1  0
  9 19  1  0
M  END
