
     RDKit          3D

 21 23  0  0  0  0  0  0  0  0999 V2000
    2.6887    0.4029    1.2054 O   0  0  0  0  0  0  0  0  0  0  0  0
    1.9044    0.0619    0.1309 C   0  0  0  0  0  0  0  0  0  0  0  0
    1.1260    1.2235   -0.5754 C   0  0  0  0  0  0  0  0  0  0  0  0
    0.4784    0.1454    0.0688 C   0  0  0  0  0  0  0  0  0  0  0  0
   -0.4988    0.1556    1.1705 C   0  0  0  0  0  0  0  0  0  0  0  0
   -1.7730    0.5860    0.4837 C   0  0  0  0  0  0  0  0  0  0  0  0
   -1.6496   -0.2528   -0.8048 C   0  0  0  0  0  0  0  0  0  0  0  0
   -0.3499   -0.9410   -0.5164 C   0  0  0  0  0  0  0  0  0  0  0  0
   -0.5625   -1.3656    0.9469 C   0  0  0  0  0  0  0  0  0  0  0  0
    3.6172    0.5349    0.8559 H   0  0  0  0  0  0  0  0  0  0  0  0
    2.4114   -0.6488   -0.5868 H   0  0  0  0  0  0  0  0  0  0  0  0
    1.2919    1.3308   -1.6554 H   0  0  0  0  0  0  0  0  0  0  0  0
    1.2362    2.2027   -0.0332 H   0  0  0  0  0  0  0  0  0  0  0  0
   -0.2759    0.4989    2.1444 H   0  0  0  0  0  0  0  0  0  0  0  0
   -2.6753    0.2436    0.9898 H   0  0  0  0  0  0  0  0  0  0  0  0
   -1.7793    1.6566    0.2376 H   0  0  0  0  0  0  0  0  0  0  0  0
   -1.5446    0.4012   -1.6913 H   0  0  0  0  0  0  0  0  0  0  0  0
   -2.4524   -0.9881   -0.8866 H   0  0  0  0  0  0  0  0  0  0  0  0
    0.0502   -1.6583   -1.1816 H   0  0  0  0  0  0  0  0  0  0  0  0
   -1.5528   -1.7483    1.1736 H   0  0  0  0  0  0  0  0  0  0  0  0
    0.3099   -1.8411    1.4018 H   0  0  0  0  0  0  0  0  0  0  0  0
  1  2  1  0
  2  3  1  0
  3  4  1  0
  4  5  1  0
  5  6  1  0
  6  7  1  0
  7  8  1  0
  8  9  1  0
  4  2  1  0
  9  5  1  0
  8  4  1  0
  1 10  1  0
  2 11  1  0
  3 12  1  0
  3 13  1  0
  5 14  1  0
  6 15  1  0
  6 16  1  0
  7 17  1  0
  7 18  1  0
  8 19  1  0
  9 20  1  0
  9 21  1  0
M  END
