
     RDKit          3D

 17 19  0  0  0  0  0  0  0  0999 V2000
    2.2495   -0.0823    0.8245 O   0  0  0  0  0  0  0  0  0  0  0  0
    1.5941    0.4521   -0.2565 C   0  0  0  0  0  0  0  0  0  0  0  0
    0.9104   -0.7187   -1.0420 C   0  0  0  0  0  0  0  0  0  0  0  0
   -0.0106   -0.6823    0.1402 C   0  0  0  0  0  0  0  0  0  0  0  0
    0.1973    0.8357    0.0786 C   0  0  0  0  0  0  0  0  0  0  0  0
   -0.9413    1.4135    0.3775 C   0  0  0  0  0  0  0  0  0  0  0  0
   -2.0314    0.3659    0.4984 C   0  0  0  0  0  0  0  0  0  0  0  0
   -2.2937   -0.1710   -0.7905 O   0  0  0  0  0  0  0  0  0  0  0  0
   -1.4572   -0.8796    0.0217 C   0  0  0  0  0  0  0  0  0  0  0  0
    3.1846    0.2809    0.8930 H   0  0  0  0  0  0  0  0  0  0  0  0
    2.1508    1.1248   -0.9006 H   0  0  0  0  0  0  0  0  0  0  0  0
    1.5611   -1.5931   -1.1364 H   0  0  0  0  0  0  0  0  0  0  0  0
    0.3929   -0.3612   -1.9433 H   0  0  0  0  0  0  0  0  0  0  0  0
    0.4216   -1.1095    1.0713 H   0  0  0  0  0  0  0  0  0  0  0  0
   -1.1708    2.4563    0.5333 H   0  0  0  0  0  0  0  0  0  0  0  0
   -2.8449    0.5055    1.2066 H   0  0  0  0  0  0  0  0  0  0  0  0
   -1.9125   -1.8369    0.4242 H   0  0  0  0  0  0  0  0  0  0  0  0
  1  2  1  0
  2  3  1  0
  3  4  1  0
  4  5  1  0
  5  6  2  0
  6  7  1  0
  7  8  1  0
  8  9  1  0
  5  2  1  0
  9  7  1  0
  9  4  1  0
  1 10  1  0
  2 11  1  0
  3 12  1  0
  3 13  1  0
  4 14  1  0
  6 15  1  0
  7 16  1  0
  9 17  1  0
M  END
