
     RDKit          3D

 19 20  0  0  0  0  0  0  0  0999 V2000
   -1.9766    0.9656   -1.0519 O   0  0  0  0  0  0  0  0  0  0  0  0
   -1.5693    0.4947    0.2268 C   0  0  0  0  0  0  0  0  0  0  0  0
   -0.3173    1.2157    0.5031 C   0  0  0  0  0  0  0  0  0  0  0  0
    0.8530    0.6851    0.3787 C   0  0  0  0  0  0  0  0  0  0  0  0
    2.3609    0.5553    0.3931 C   0  0  0  0  0  0  0  0  0  0  0  0
    2.1457   -0.2614   -0.7602 O   0  0  0  0  0  0  0  0  0  0  0  0
    1.0669   -0.7597   -0.0427 C   0  0  0  0  0  0  0  0  0  0  0  0
   -0.1490   -1.1725   -0.8413 C   0  0  0  0  0  0  0  0  0  0  0  0
   -1.3252   -0.9652    0.1201 C   0  0  0  0  0  0  0  0  0  0  0  0
   -1.8400    1.9464   -1.0145 H   0  0  0  0  0  0  0  0  0  0  0  0
   -2.3695    0.7354    0.9766 H   0  0  0  0  0  0  0  0  0  0  0  0
   -0.3846    2.2481    0.8287 H   0  0  0  0  0  0  0  0  0  0  0  0
    2.8874    1.4847    0.1923 H   0  0  0  0  0  0  0  0  0  0  0  0
    2.7397   -0.0914    1.2099 H   0  0  0  0  0  0  0  0  0  0  0  0
    1.3631   -1.4233    0.7750 H   0  0  0  0  0  0  0  0  0  0  0  0
   -0.2295   -0.4999   -1.6999 H   0  0  0  0  0  0  0  0  0  0  0  0
   -0.0973   -2.2353   -1.0669 H   0  0  0  0  0  0  0  0  0  0  0  0
   -0.9790   -1.3674    1.0980 H   0  0  0  0  0  0  0  0  0  0  0  0
   -2.1793   -1.5549   -0.2250 H   0  0  0  0  0  0  0  0  0  0  0  0
  1  2  1  0
  2  3  1  0
  3  4  2  0
  4  5  1  0
  5  6  1  0
  6  7  1  0
  7  8  1  0
  8  9  1  0
  9  2  1  0
  7  4  1  0
  1 10  1  0
  2 11  1  0
  3 12  1  0
  5 13  1  0
  5 14  1  0
  7 15  1  0
  8 16  1  0
  8 17  1  0
  9 18  1  0
  9 19  1  0
M  END
