
     RDKit          3D

 19 20  0  0  0  0  0  0  0  0999 V2000
   -1.2599    1.2090    1.3032 O   0  0  0  0  0  0  0  0  0  0  0  0
   -1.3847    0.6637    0.0313 C   0  0  0  0  0  0  0  0  0  0  0  0
   -0.2611    1.2842   -0.8069 C   0  0  0  0  0  0  0  0  0  0  0  0
    0.9411    0.7505   -0.0239 C   0  0  0  0  0  0  0  0  0  0  0  0
    1.5886   -0.4464   -0.5585 C   0  0  0  0  0  0  0  0  0  0  0  0
    2.8793   -0.7879   -0.1338 O   0  0  0  0  0  0  0  0  0  0  0  0
    0.5089   -0.6703    0.4068 C   0  0  0  0  0  0  0  0  0  0  0  0
   -0.9279   -0.7960    0.0288 C   0  0  0  0  0  0  0  0  0  0  0  0
   -1.6907   -1.5263    0.9133 O   0  0  0  0  0  0  0  0  0  0  0  0
   -2.1616    1.1661    1.7148 H   0  0  0  0  0  0  0  0  0  0  0  0
   -2.3655    0.8044   -0.4076 H   0  0  0  0  0  0  0  0  0  0  0  0
   -0.2943    0.8872   -1.8318 H   0  0  0  0  0  0  0  0  0  0  0  0
   -0.2450    2.3706   -0.7456 H   0  0  0  0  0  0  0  0  0  0  0  0
    1.3431    1.3781    0.7775 H   0  0  0  0  0  0  0  0  0  0  0  0
    1.4314   -0.6269   -1.6603 H   0  0  0  0  0  0  0  0  0  0  0  0
    3.3878   -1.2550   -0.8428 H   0  0  0  0  0  0  0  0  0  0  0  0
    0.7886   -0.9590    1.4433 H   0  0  0  0  0  0  0  0  0  0  0  0
   -1.0875   -1.2076   -0.9813 H   0  0  0  0  0  0  0  0  0  0  0  0
   -1.1908   -2.2385    1.3735 H   0  0  0  0  0  0  0  0  0  0  0  0
  1  2  1  0
  2  3  1  0
  3  4  1  0
  4  5  1  0
  5  6  1  0
  5  7  1  0
  7  8  1  0
  8  9  1  0
  8  2  1  0
  7  4  1  0
  1 10  1  0
  2 11  1  0
  3 12  1  0
  3 13  1  0
  4 14  1  0
  5 15  1  0
  6 16  1  0
  7 17  1  0
  8 18  1  0
  9 19  1  0
M  END
