
     RDKit          3D

 21 23  0  0  0  0  0  0  0  0999 V2000
   -2.3191    1.3173    0.7042 O   0  0  0  0  0  0  0  0  0  0  0  0
   -1.1608    0.5911    1.0012 C   0  0  0  0  0  0  0  0  0  0  0  0
    0.0080    1.1735    0.2085 C   0  0  0  0  0  0  0  0  0  0  0  0
    0.8209   -0.0382   -0.0930 C   0  0  0  0  0  0  0  0  0  0  0  0
    2.0444   -0.0133   -0.9062 C   0  0  0  0  0  0  0  0  0  0  0  0
    2.0811   -0.3616    0.5814 C   0  0  0  0  0  0  0  0  0  0  0  0
   -0.1682   -1.1308   -0.3740 C   0  0  0  0  0  0  0  0  0  0  0  0
   -1.4632   -0.8527   -1.0516 C   0  0  0  0  0  0  0  0  0  0  0  0
   -1.3463   -0.7956    0.4485 C   0  0  0  0  0  0  0  0  0  0  0  0
   -2.1342    2.2499    0.4551 H   0  0  0  0  0  0  0  0  0  0  0  0
   -0.9152    0.5997    2.0748 H   0  0  0  0  0  0  0  0  0  0  0  0
    0.4990    1.9070    0.8713 H   0  0  0  0  0  0  0  0  0  0  0  0
   -0.4369    1.6576   -0.6905 H   0  0  0  0  0  0  0  0  0  0  0  0
    2.1872   -0.8387   -1.6376 H   0  0  0  0  0  0  0  0  0  0  0  0
    2.4172    0.9763   -1.2240 H   0  0  0  0  0  0  0  0  0  0  0  0
    2.6714    0.3506    1.1717 H   0  0  0  0  0  0  0  0  0  0  0  0
    2.2846   -1.4353    0.8270 H   0  0  0  0  0  0  0  0  0  0  0  0
    0.2704   -2.1490   -0.3671 H   0  0  0  0  0  0  0  0  0  0  0  0
   -1.5890    0.1052   -1.6086 H   0  0  0  0  0  0  0  0  0  0  0  0
   -2.0032   -1.7081   -1.4670 H   0  0  0  0  0  0  0  0  0  0  0  0
   -1.7480   -1.6048    1.0760 H   0  0  0  0  0  0  0  0  0  0  0  0
  1  2  1  0
  2  3  1  0
  3  4  1  0
  4  5  1  0
  5  6  1  0
  4  7  1  0
  7  8  1  0
  8  9  1  0
  9  2  1  0
  6  4  1  0
  9  7  1  0
  1 10  1  0
  2 11  1  0
  3 12  1  0
  3 13  1  0
  5 14  1  0
  5 15  1  0
  6 16  1  0
  6 17  1  0
  7 18  1  0
  8 19  1  0
  8 20  1  0
  9 21  1  0
M  END
