
     RDKit          3D

 19 21  0  0  0  0  0  0  0  0999 V2000
   -2.6478   -0.8308   -0.2152 O   0  0  0  0  0  0  0  0  0  0  0  0
   -1.3037   -0.5762   -0.5686 C   0  0  0  0  0  0  0  0  0  0  0  0
   -1.1233    0.8423   -0.9737 C   0  0  0  0  0  0  0  0  0  0  0  0
   -0.0667    1.5535   -0.6083 C   0  0  0  0  0  0  0  0  0  0  0  0
    1.0164    1.0020    0.2278 C   0  0  0  0  0  0  0  0  0  0  0  0
    1.7842   -0.1453   -0.3941 C   0  0  0  0  0  0  0  0  0  0  0  0
    1.0139   -1.1157    0.4471 C   0  0  0  0  0  0  0  0  0  0  0  0
   -0.4544   -0.9911    0.5861 C   0  0  0  0  0  0  0  0  0  0  0  0
    0.4059    0.0302    1.1876 C   0  0  0  0  0  0  0  0  0  0  0  0
   -2.9135   -0.2745    0.5528 H   0  0  0  0  0  0  0  0  0  0  0  0
   -1.1312   -1.2064   -1.4826 H   0  0  0  0  0  0  0  0  0  0  0  0
   -1.9088    1.2778   -1.5929 H   0  0  0  0  0  0  0  0  0  0  0  0
   -0.0062    2.5778   -0.9420 H   0  0  0  0  0  0  0  0  0  0  0  0
    1.6279    1.7438    0.7766 H   0  0  0  0  0  0  0  0  0  0  0  0
    2.8573   -0.1385   -0.1012 H   0  0  0  0  0  0  0  0  0  0  0  0
    1.6708   -0.2474   -1.4893 H   0  0  0  0  0  0  0  0  0  0  0  0
    1.5282   -1.9315    0.9775 H   0  0  0  0  0  0  0  0  0  0  0  0
   -0.9131   -1.6971    1.3405 H   0  0  0  0  0  0  0  0  0  0  0  0
    0.5641    0.1270    2.2719 H   0  0  0  0  0  0  0  0  0  0  0  0
  1  2  1  0
  2  3  1  0
  3  4  2  0
  4  5  1  0
  5  6  1  0
  6  7  1  0
  7  8  1  0
  8  9  1  0
  8  2  1  0
  9  5  1  0
  9  7  1  0
  1 10  1  0
  2 11  1  0
  3 12  1  0
  4 13  1  0
  5 14  1  0
  6 15  1  0
  6 16  1  0
  7 17  1  0
  8 18  1  0
  9 19  1  0
M  END
