
     RDKit          3D

 15 16  0  0  0  0  0  0  0  0999 V2000
   -2.2664    0.1418    0.0300 O   0  0  0  0  0  0  0  0  0  0  0  0
   -0.9835   -0.0268    0.5090 C   0  0  0  0  0  0  0  0  0  0  0  0
   -0.2166   -1.0175   -0.3749 C   0  0  0  0  0  0  0  0  0  0  0  0
    1.2195   -0.6968    0.0554 C   0  0  0  0  0  0  0  0  0  0  0  0
    1.1722    0.8268   -0.0294 C   0  0  0  0  0  0  0  0  0  0  0  0
    0.2965    1.3538   -1.0254 O   0  0  0  0  0  0  0  0  0  0  0  0
   -0.1222    1.2026    0.3657 C   0  0  0  0  0  0  0  0  0  0  0  0
   -2.3114    0.0135   -0.9581 H   0  0  0  0  0  0  0  0  0  0  0  0
   -0.9379   -0.4183    1.5366 H   0  0  0  0  0  0  0  0  0  0  0  0
   -0.3205   -0.7436   -1.4370 H   0  0  0  0  0  0  0  0  0  0  0  0
   -0.5144   -2.0312   -0.1202 H   0  0  0  0  0  0  0  0  0  0  0  0
    1.9620   -1.1358   -0.6146 H   0  0  0  0  0  0  0  0  0  0  0  0
    1.3041   -1.0053    1.1108 H   0  0  0  0  0  0  0  0  0  0  0  0
    2.0838    1.4075    0.0639 H   0  0  0  0  0  0  0  0  0  0  0  0
   -0.3651    2.1295    0.8880 H   0  0  0  0  0  0  0  0  0  0  0  0
  1  2  1  0
  2  3  1  0
  3  4  1  0
  4  5  1  0
  5  6  1  0
  6  7  1  0
  7  2  1  0
  7  5  1  0
  1  8  1  0
  2  9  1  0
  3 10  1  0
  3 11  1  0
  4 12  1  0
  4 13  1  0
  5 14  1  0
  7 15  1  0
M  END
