
     RDKit          3D

 18 20  0  0  0  0  0  0  0  0999 V2000
    2.3876    0.9623   -0.7552 O   0  0  0  0  0  0  0  0  0  0  0  0
    1.0776    0.7542   -0.6124 C   0  0  0  0  0  0  0  0  0  0  0  0
    0.4973    0.5149    0.7544 C   0  0  0  0  0  0  0  0  0  0  0  0
    1.1191   -0.8555    0.6820 C   0  0  0  0  0  0  0  0  0  0  0  0
    0.5353   -0.6473   -0.6945 C   0  0  0  0  0  0  0  0  0  0  0  0
   -0.6249   -0.0859    0.0131 C   0  0  0  0  0  0  0  0  0  0  0  0
   -1.8282   -0.6587    0.4478 C   0  0  0  0  0  0  0  0  0  0  0  0
   -1.7772    0.5621   -0.5342 C   0  0  0  0  0  0  0  0  0  0  0  0
    2.9888    0.7796   -0.0215 H   0  0  0  0  0  0  0  0  0  0  0  0
    0.4381    1.4715   -1.1687 H   0  0  0  0  0  0  0  0  0  0  0  0
    0.5063    1.1408    1.5348 H   0  0  0  0  0  0  0  0  0  0  0  0
    0.6013   -1.6486    1.2477 H   0  0  0  0  0  0  0  0  0  0  0  0
    2.1939   -0.9268    0.7646 H   0  0  0  0  0  0  0  0  0  0  0  0
    0.5940   -1.2746   -1.4709 H   0  0  0  0  0  0  0  0  0  0  0  0
   -2.2245   -1.5860   -0.0367 H   0  0  0  0  0  0  0  0  0  0  0  0
   -2.2410   -0.4179    1.4650 H   0  0  0  0  0  0  0  0  0  0  0  0
   -2.1065    1.5339   -0.0724 H   0  0  0  0  0  0  0  0  0  0  0  0
   -2.1369    0.3821   -1.5529 H   0  0  0  0  0  0  0  0  0  0  0  0
  1  2  1  0
  2  3  1  0
  3  4  1  0
  4  5  1  0
  5  6  1  0
  6  7  1  0
  7  8  1  0
  5  2  1  0
  8  6  1  0
  6  3  1  0
  1  9  1  0
  2 10  1  0
  3 11  1  0
  4 12  1  0
  4 13  1  0
  5 14  1  0
  7 15  1  0
  7 16  1  0
  8 17  1  0
  8 18  1  0
M  END
