
     RDKit          3D

 18 19  0  0  0  0  0  0  0  0999 V2000
    2.4070    0.5449   -0.9253 O   0  0  0  0  0  0  0  0  0  0  0  0
    1.3658    0.2317   -0.0952 C   0  0  0  0  0  0  0  0  0  0  0  0
    0.3506    1.3746    0.0346 C   0  0  0  0  0  0  0  0  0  0  0  0
   -0.7584    0.6417    0.8016 C   0  0  0  0  0  0  0  0  0  0  0  0
   -1.8698    0.1302   -0.0425 C   0  0  0  0  0  0  0  0  0  0  0  0
   -0.7396   -0.7710    0.2296 C   0  0  0  0  0  0  0  0  0  0  0  0
   -0.9591   -1.8418    1.0799 O   0  0  0  0  0  0  0  0  0  0  0  0
    0.4460   -0.8448   -0.6788 C   0  0  0  0  0  0  0  0  0  0  0  0
    3.2551    0.2341   -0.4858 H   0  0  0  0  0  0  0  0  0  0  0  0
    1.6699   -0.0081    0.9402 H   0  0  0  0  0  0  0  0  0  0  0  0
    0.0197    1.5996   -0.9967 H   0  0  0  0  0  0  0  0  0  0  0  0
    0.7455    2.2232    0.5889 H   0  0  0  0  0  0  0  0  0  0  0  0
   -0.8464    0.7895    1.8790 H   0  0  0  0  0  0  0  0  0  0  0  0
   -2.8141   -0.0731    0.5202 H   0  0  0  0  0  0  0  0  0  0  0  0
   -2.0145    0.6304   -1.0302 H   0  0  0  0  0  0  0  0  0  0  0  0
   -1.3866   -2.5722    0.5502 H   0  0  0  0  0  0  0  0  0  0  0  0
    0.9643   -1.8096   -0.6852 H   0  0  0  0  0  0  0  0  0  0  0  0
    0.1647   -0.4793   -1.6843 H   0  0  0  0  0  0  0  0  0  0  0  0
  1  2  1  0
  2  3  1  0
  3  4  1  0
  4  5  1  0
  5  6  1  0
  6  7  1  0
  6  8  1  0
  8  2  1  0
  6  4  1  0
  1  9  1  0
  2 10  1  0
  3 11  1  0
  3 12  1  0
  4 13  1  0
  5 14  1  0
  5 15  1  0
  7 16  1  0
  8 17  1  0
  8 18  1  0
M  END
