
     RDKit          3D

 18 19  0  0  0  0  0  0  0  0999 V2000
   -2.3826   -0.6663    0.9104 O   0  0  0  0  0  0  0  0  0  0  0  0
   -1.2746   -0.6112    0.1121 C   0  0  0  0  0  0  0  0  0  0  0  0
   -1.2370    0.5475   -0.8334 C   0  0  0  0  0  0  0  0  0  0  0  0
    0.2016    1.0455   -0.7608 C   0  0  0  0  0  0  0  0  0  0  0  0
    0.9762   -0.0310   -0.1033 C   0  0  0  0  0  0  0  0  0  0  0  0
    2.3374   -0.2023    0.0557 C   0  0  0  0  0  0  0  0  0  0  0  0
    1.5306   -1.0759   -0.8306 O   0  0  0  0  0  0  0  0  0  0  0  0
   -0.0019   -0.5325    0.9542 C   0  0  0  0  0  0  0  0  0  0  0  0
   -2.3001    0.0596    1.5914 H   0  0  0  0  0  0  0  0  0  0  0  0
   -1.1809   -1.5564   -0.4913 H   0  0  0  0  0  0  0  0  0  0  0  0
   -1.4910    0.2575   -1.8866 H   0  0  0  0  0  0  0  0  0  0  0  0
   -1.9542    1.3128   -0.4478 H   0  0  0  0  0  0  0  0  0  0  0  0
    0.1841    1.9324   -0.0633 H   0  0  0  0  0  0  0  0  0  0  0  0
    0.5808    1.4079   -1.7105 H   0  0  0  0  0  0  0  0  0  0  0  0
    3.1286    0.2447   -0.5481 H   0  0  0  0  0  0  0  0  0  0  0  0
    2.7451   -0.7715    0.9393 H   0  0  0  0  0  0  0  0  0  0  0  0
    0.2452   -1.5235    1.3246 H   0  0  0  0  0  0  0  0  0  0  0  0
   -0.1074    0.1627    1.7880 H   0  0  0  0  0  0  0  0  0  0  0  0
  1  2  1  0
  2  3  1  0
  3  4  1  0
  4  5  1  0
  5  6  1  0
  6  7  1  0
  5  8  1  0
  8  2  1  0
  7  5  1  0
  1  9  1  0
  2 10  1  0
  3 11  1  0
  3 12  1  0
  4 13  1  0
  4 14  1  0
  6 15  1  0
  6 16  1  0
  8 17  1  0
  8 18  1  0
M  END
