
     RDKit          3D

 19 20  0  0  0  0  0  0  0  0999 V2000
    2.5854   -0.4994    0.0667 O   0  0  0  0  0  0  0  0  0  0  0  0
    1.3285   -0.2586   -0.4939 C   0  0  0  0  0  0  0  0  0  0  0  0
    1.0043    1.1982   -0.1348 C   0  0  0  0  0  0  0  0  0  0  0  0
   -0.1664    1.5181   -0.7237 O   0  0  0  0  0  0  0  0  0  0  0  0
   -1.3153    1.1746   -0.0730 C   0  0  0  0  0  0  0  0  0  0  0  0
   -1.2939   -0.1502    0.6116 C   0  0  0  0  0  0  0  0  0  0  0  0
   -0.9940   -1.2129   -0.4101 C   0  0  0  0  0  0  0  0  0  0  0  0
    0.3403   -1.1163    0.2557 C   0  0  0  0  0  0  0  0  0  0  0  0
   -0.1750   -0.4128    1.3479 O   0  0  0  0  0  0  0  0  0  0  0  0
    2.4260   -0.5181    1.0610 H   0  0  0  0  0  0  0  0  0  0  0  0
    1.3063   -0.4143   -1.5841 H   0  0  0  0  0  0  0  0  0  0  0  0
    1.0477    1.2850    0.9608 H   0  0  0  0  0  0  0  0  0  0  0  0
    1.8224    1.8449   -0.5312 H   0  0  0  0  0  0  0  0  0  0  0  0
   -1.6606    1.9697    0.6219 H   0  0  0  0  0  0  0  0  0  0  0  0
   -2.1231    1.1160   -0.8639 H   0  0  0  0  0  0  0  0  0  0  0  0
   -2.2621   -0.3538    1.0996 H   0  0  0  0  0  0  0  0  0  0  0  0
   -1.5493   -2.1624   -0.2733 H   0  0  0  0  0  0  0  0  0  0  0  0
   -1.0552   -0.9040   -1.4610 H   0  0  0  0  0  0  0  0  0  0  0  0
    0.7339   -2.1038    0.5239 H   0  0  0  0  0  0  0  0  0  0  0  0
  1  2  1  0
  2  3  1  0
  3  4  1  0
  4  5  1  0
  5  6  1  0
  6  7  1  0
  7  8  1  0
  8  9  1  0
  8  2  1  0
  9  6  1  0
  1 10  1  0
  2 11  1  0
  3 12  1  0
  3 13  1  0
  5 14  1  0
  5 15  1  0
  6 16  1  0
  7 17  1  0
  7 18  1  0
  8 19  1  0
M  END
