
     RDKit          3D

 21 22  0  0  0  0  0  0  0  0999 V2000
   -1.8644    0.9082   -1.0891 O   0  0  0  0  0  0  0  0  0  0  0  0
   -1.4448    0.2864    0.0828 C   0  0  0  0  0  0  0  0  0  0  0  0
   -0.9912   -1.1214   -0.1607 C   0  0  0  0  0  0  0  0  0  0  0  0
    0.4545   -1.1139    0.2872 C   0  0  0  0  0  0  0  0  0  0  0  0
    1.2951   -0.6093   -0.8335 C   0  0  0  0  0  0  0  0  0  0  0  0
    1.5555    0.8479   -0.6840 C   0  0  0  0  0  0  0  0  0  0  0  0
    0.6431    1.6176   -0.1339 C   0  0  0  0  0  0  0  0  0  0  0  0
   -0.3419    1.0213    0.7841 C   0  0  0  0  0  0  0  0  0  0  0  0
    0.3888   -0.1519    1.4584 C   0  0  0  0  0  0  0  0  0  0  0  0
   -2.0634    0.1549   -1.7220 H   0  0  0  0  0  0  0  0  0  0  0  0
   -2.3174    0.2492    0.7773 H   0  0  0  0  0  0  0  0  0  0  0  0
   -1.0005   -1.3964   -1.2337 H   0  0  0  0  0  0  0  0  0  0  0  0
   -1.5495   -1.8544    0.4545 H   0  0  0  0  0  0  0  0  0  0  0  0
    0.6944   -2.1441    0.6048 H   0  0  0  0  0  0  0  0  0  0  0  0
    0.7864   -0.7206   -1.8367 H   0  0  0  0  0  0  0  0  0  0  0  0
    2.2529   -1.1700   -0.9501 H   0  0  0  0  0  0  0  0  0  0  0  0
    2.5080    1.2181   -1.0440 H   0  0  0  0  0  0  0  0  0  0  0  0
    0.6174    2.6627   -0.3506 H   0  0  0  0  0  0  0  0  0  0  0  0
   -0.7371    1.7247    1.5370 H   0  0  0  0  0  0  0  0  0  0  0  0
    1.3736    0.1350    1.8164 H   0  0  0  0  0  0  0  0  0  0  0  0
   -0.2595   -0.5441    2.2355 H   0  0  0  0  0  0  0  0  0  0  0  0
  1  2  1  0
  2  3  1  0
  3  4  1  0
  4  5  1  0
  5  6  1  0
  6  7  2  0
  7  8  1  0
  8  9  1  0
  8  2  1  0
  9  4  1  0
  1 10  1  0
  2 11  1  0
  3 12  1  0
  3 13  1  0
  4 14  1  0
  5 15  1  0
  5 16  1  0
  6 17  1  0
  7 18  1  0
  8 19  1  0
  9 20  1  0
  9 21  1  0
M  END
