
     RDKit          3D

 17 18  0  0  0  0  0  0  0  0999 V2000
    2.1550   -1.1837    0.4158 O   0  0  0  0  0  0  0  0  0  0  0  0
    1.0945   -0.5365   -0.1994 C   0  0  0  0  0  0  0  0  0  0  0  0
    1.1625    0.9538   -0.0098 C   0  0  0  0  0  0  0  0  0  0  0  0
    0.0707    1.6393    0.2483 C   0  0  0  0  0  0  0  0  0  0  0  0
   -1.1350    0.9375    0.7239 C   0  0  0  0  0  0  0  0  0  0  0  0
   -1.9110    0.4408   -0.3233 O   0  0  0  0  0  0  0  0  0  0  0  0
   -1.2904   -0.7615   -0.7139 C   0  0  0  0  0  0  0  0  0  0  0  0
   -0.2413   -0.9820    0.3268 C   0  0  0  0  0  0  0  0  0  0  0  0
   -0.6811   -0.2144    1.4082 O   0  0  0  0  0  0  0  0  0  0  0  0
    2.1486   -0.9598    1.3831 H   0  0  0  0  0  0  0  0  0  0  0  0
    1.1716   -0.6944   -1.3100 H   0  0  0  0  0  0  0  0  0  0  0  0
    2.1530    1.3942   -0.1015 H   0  0  0  0  0  0  0  0  0  0  0  0
    0.0656    2.6994    0.1114 H   0  0  0  0  0  0  0  0  0  0  0  0
   -1.7934    1.5539    1.3563 H   0  0  0  0  0  0  0  0  0  0  0  0
   -0.8188   -0.6390   -1.7058 H   0  0  0  0  0  0  0  0  0  0  0  0
   -1.9960   -1.6143   -0.6760 H   0  0  0  0  0  0  0  0  0  0  0  0
   -0.1547   -2.0333    0.6582 H   0  0  0  0  0  0  0  0  0  0  0  0
  1  2  1  0
  2  3  1  0
  3  4  2  0
  4  5  1  0
  5  6  1  0
  6  7  1  0
  7  8  1  0
  8  9  1  0
  8  2  1  0
  9  5  1  0
  1 10  1  0
  2 11  1  0
  3 12  1  0
  4 13  1  0
  5 14  1  0
  7 15  1  0
  7 16  1  0
  8 17  1  0
M  END
