
     RDKit          3D

 19 20  0  0  0  0  0  0  0  0999 V2000
    2.8016    0.2837    0.7795 O   0  0  0  0  0  0  0  0  0  0  0  0
    1.7041    0.4177   -0.0471 C   0  0  0  0  0  0  0  0  0  0  0  0
    1.1613   -0.9115   -0.4896 C   0  0  0  0  0  0  0  0  0  0  0  0
   -0.1519   -0.9357   -0.4938 C   0  0  0  0  0  0  0  0  0  0  0  0
   -1.5977   -1.2416   -0.5913 C   0  0  0  0  0  0  0  0  0  0  0  0
   -1.7128   -0.3235    0.6497 C   0  0  0  0  0  0  0  0  0  0  0  0
   -0.6553    0.4432   -0.0675 C   0  0  0  0  0  0  0  0  0  0  0  0
   -1.1248    1.2079   -1.1003 O   0  0  0  0  0  0  0  0  0  0  0  0
    0.5133    0.9803    0.7103 C   0  0  0  0  0  0  0  0  0  0  0  0
    3.3592   -0.4998    0.5292 H   0  0  0  0  0  0  0  0  0  0  0  0
    1.9162    1.0400   -0.9318 H   0  0  0  0  0  0  0  0  0  0  0  0
    1.8133   -1.7340   -0.7664 H   0  0  0  0  0  0  0  0  0  0  0  0
   -2.0394   -0.7133   -1.4490 H   0  0  0  0  0  0  0  0  0  0  0  0
   -1.9047   -2.2675   -0.4150 H   0  0  0  0  0  0  0  0  0  0  0  0
   -1.3980   -0.8668    1.5495 H   0  0  0  0  0  0  0  0  0  0  0  0
   -2.7261    0.1112    0.6610 H   0  0  0  0  0  0  0  0  0  0  0  0
   -1.0048    2.1775   -0.8610 H   0  0  0  0  0  0  0  0  0  0  0  0
    0.5110    0.7532    1.7699 H   0  0  0  0  0  0  0  0  0  0  0  0
    0.5356    2.0791    0.5636 H   0  0  0  0  0  0  0  0  0  0  0  0
  1  2  1  0
  2  3  1  0
  3  4  2  0
  4  5  1  0
  5  6  1  0
  6  7  1  0
  7  8  1  0
  7  9  1  0
  9  2  1  0
  7  4  1  0
  1 10  1  0
  2 11  1  0
  3 12  1  0
  5 13  1  0
  5 14  1  0
  6 15  1  0
  6 16  1  0
  8 17  1  0
  9 18  1  0
  9 19  1  0
M  END
