
     RDKit          3D

 23 23  0  0  0  0  0  0  0  0999 V2000
   -1.3090   -2.4337    0.1291 O   0  0  0  0  0  0  0  0  0  0  0  0
   -0.7039   -1.1644    0.2963 C   0  0  0  0  0  0  0  0  0  0  0  0
   -1.5710   -0.1780   -0.4164 C   0  0  0  0  0  0  0  0  0  0  0  0
   -1.3953    1.2365    0.0250 C   0  0  0  0  0  0  0  0  0  0  0  0
    0.0153    1.7200    0.0687 C   0  0  0  0  0  0  0  0  0  0  0  0
    0.9395    0.9326    0.9182 C   0  0  0  0  0  0  0  0  0  0  0  0
    1.5815   -0.1416    0.0841 C   0  0  0  0  0  0  0  0  0  0  0  0
    2.7870   -0.5667    0.6697 O   0  0  0  0  0  0  0  0  0  0  0  0
    0.6810   -1.2737   -0.2566 C   0  0  0  0  0  0  0  0  0  0  0  0
   -2.2752   -2.3679    0.2787 H   0  0  0  0  0  0  0  0  0  0  0  0
   -0.7327   -0.9809    1.3885 H   0  0  0  0  0  0  0  0  0  0  0  0
   -2.6321   -0.4605   -0.2116 H   0  0  0  0  0  0  0  0  0  0  0  0
   -1.4348   -0.3194   -1.5099 H   0  0  0  0  0  0  0  0  0  0  0  0
   -1.8769    1.4126    0.9934 H   0  0  0  0  0  0  0  0  0  0  0  0
   -1.9334    1.8801   -0.7159 H   0  0  0  0  0  0  0  0  0  0  0  0
   -0.0097    2.7634    0.4501 H   0  0  0  0  0  0  0  0  0  0  0  0
    0.4699    1.7806   -0.9616 H   0  0  0  0  0  0  0  0  0  0  0  0
    1.7813    1.6226    1.2284 H   0  0  0  0  0  0  0  0  0  0  0  0
    0.5113    0.5654    1.8606 H   0  0  0  0  0  0  0  0  0  0  0  0
    1.8882    0.3537   -0.8813 H   0  0  0  0  0  0  0  0  0  0  0  0
    3.4819   -0.7302   -0.0438 H   0  0  0  0  0  0  0  0  0  0  0  0
    1.1335   -2.2063    0.1865 H   0  0  0  0  0  0  0  0  0  0  0  0
    0.6036   -1.4442   -1.3424 H   0  0  0  0  0  0  0  0  0  0  0  0
  1  2  1  0
  2  3  1  0
  3  4  1  0
  4  5  1  0
  5  6  1  0
  6  7  1  0
  7  8  1  0
  7  9  1  0
  9  2  1  0
  1 10  1  0
  2 11  1  0
  3 12  1  0
  3 13  1  0
  4 14  1  0
  4 15  1  0
  5 16  1  0
  5 17  1  0
  6 18  1  0
  6 19  1  0
  7 20  1  0
  8 21  1  0
  9 22  1  0
  9 23  1  0
M  END
