
     RDKit          3D

 19 20  0  0  0  0  0  0  0  0999 V2000
    2.5235    0.0355   -0.2622 O   0  0  0  0  0  0  0  0  0  0  0  0
    1.4740    0.2679    0.6360 C   0  0  0  0  0  0  0  0  0  0  0  0
    0.7561    1.4806    0.1260 C   0  0  0  0  0  0  0  0  0  0  0  0
   -0.2342    1.2973   -0.7436 C   0  0  0  0  0  0  0  0  0  0  0  0
   -0.6379   -0.0565   -1.2349 C   0  0  0  0  0  0  0  0  0  0  0  0
   -1.7200   -0.5417   -0.2570 C   0  0  0  0  0  0  0  0  0  0  0  0
   -0.8437   -0.5949    1.0033 C   0  0  0  0  0  0  0  0  0  0  0  0
    0.4990   -0.8982    0.4342 C   0  0  0  0  0  0  0  0  0  0  0  0
    0.3495   -1.0119   -0.9574 O   0  0  0  0  0  0  0  0  0  0  0  0
    2.4936   -0.8459   -0.6771 H   0  0  0  0  0  0  0  0  0  0  0  0
    1.7989    0.3653    1.6710 H   0  0  0  0  0  0  0  0  0  0  0  0
    1.0283    2.4872    0.4506 H   0  0  0  0  0  0  0  0  0  0  0  0
   -0.8104    2.1327   -1.1486 H   0  0  0  0  0  0  0  0  0  0  0  0
   -0.9784   -0.0638   -2.2651 H   0  0  0  0  0  0  0  0  0  0  0  0
   -2.5266    0.1806   -0.1663 H   0  0  0  0  0  0  0  0  0  0  0  0
   -2.0225   -1.5520   -0.5626 H   0  0  0  0  0  0  0  0  0  0  0  0
   -0.8344    0.4665    1.3779 H   0  0  0  0  0  0  0  0  0  0  0  0
   -1.2178   -1.3098    1.7355 H   0  0  0  0  0  0  0  0  0  0  0  0
    0.9029   -1.8390    0.8403 H   0  0  0  0  0  0  0  0  0  0  0  0
  1  2  1  0
  2  3  1  0
  3  4  2  0
  4  5  1  0
  5  6  1  0
  6  7  1  0
  7  8  1  0
  8  9  1  0
  8  2  1  0
  9  5  1  0
  1 10  1  0
  2 11  1  0
  3 12  1  0
  4 13  1  0
  5 14  1  0
  6 15  1  0
  6 16  1  0
  7 17  1  0
  7 18  1  0
  8 19  1  0
M  END
