
     RDKit          3D

 19 20  0  0  0  0  0  0  0  0999 V2000
    2.3147    0.0662    1.1980 O   0  0  0  0  0  0  0  0  0  0  0  0
    1.6157    0.1592   -0.0075 C   0  0  0  0  0  0  0  0  0  0  0  0
    0.5944    1.2793    0.0695 C   0  0  0  0  0  0  0  0  0  0  0  0
   -0.6578    0.7725   -0.5847 C   0  0  0  0  0  0  0  0  0  0  0  0
   -1.8143    1.1093    0.1156 O   0  0  0  0  0  0  0  0  0  0  0  0
   -2.3517   -0.0927    0.5909 C   0  0  0  0  0  0  0  0  0  0  0  0
   -1.1718   -0.8111    0.8975 O   0  0  0  0  0  0  0  0  0  0  0  0
   -0.5555   -0.7195   -0.3732 C   0  0  0  0  0  0  0  0  0  0  0  0
    0.8760   -1.0929   -0.3525 C   0  0  0  0  0  0  0  0  0  0  0  0
    2.9627   -0.6656    1.1412 H   0  0  0  0  0  0  0  0  0  0  0  0
    2.3209    0.4525   -0.8327 H   0  0  0  0  0  0  0  0  0  0  0  0
    0.3799    1.4896    1.1205 H   0  0  0  0  0  0  0  0  0  0  0  0
    0.9850    2.2135   -0.3825 H   0  0  0  0  0  0  0  0  0  0  0  0
   -0.7267    1.0175   -1.6517 H   0  0  0  0  0  0  0  0  0  0  0  0
   -2.9994    0.0356    1.4504 H   0  0  0  0  0  0  0  0  0  0  0  0
   -2.8632   -0.5752   -0.2812 H   0  0  0  0  0  0  0  0  0  0  0  0
   -1.1827   -1.2735   -1.0753 H   0  0  0  0  0  0  0  0  0  0  0  0
    1.1861   -1.4210   -1.3734 H   0  0  0  0  0  0  0  0  0  0  0  0
    1.0875   -1.9437    0.3309 H   0  0  0  0  0  0  0  0  0  0  0  0
  1  2  1  0
  2  3  1  0
  3  4  1  0
  4  5  1  0
  5  6  1  0
  6  7  1  0
  7  8  1  0
  8  9  1  0
  9  2  1  0
  8  4  1  0
  1 10  1  0
  2 11  1  0
  3 12  1  0
  3 13  1  0
  4 14  1  0
  6 15  1  0
  6 16  1  0
  8 17  1  0
  9 18  1  0
  9 19  1  0
M  END
