
     RDKit          3D

 17 20  0  0  0  0  0  0  0  0999 V2000
   -1.6708    1.4652   -1.0475 O   0  0  0  0  0  0  0  0  0  0  0  0
   -1.3027    0.5270   -0.1298 C   0  0  0  0  0  0  0  0  0  0  0  0
   -0.8969   -0.7983   -0.7093 C   0  0  0  0  0  0  0  0  0  0  0  0
   -0.1637   -1.4387    0.3969 C   0  0  0  0  0  0  0  0  0  0  0  0
    0.5668   -0.8883   -0.7409 C   0  0  0  0  0  0  0  0  0  0  0  0
    1.0547    0.2414    0.0741 C   0  0  0  0  0  0  0  0  0  0  0  0
    2.3639    0.5938    0.1857 O   0  0  0  0  0  0  0  0  0  0  0  0
   -0.0741    0.9104    0.6786 C   0  0  0  0  0  0  0  0  0  0  0  0
    0.3333   -0.3512    1.2762 C   0  0  0  0  0  0  0  0  0  0  0  0
   -1.0920    2.2495   -1.0655 H   0  0  0  0  0  0  0  0  0  0  0  0
   -2.1063    0.3196    0.6278 H   0  0  0  0  0  0  0  0  0  0  0  0
   -1.5122   -1.3283   -1.4297 H   0  0  0  0  0  0  0  0  0  0  0  0
   -0.2347   -2.4730    0.6816 H   0  0  0  0  0  0  0  0  0  0  0  0
    1.1559   -1.4544   -1.4392 H   0  0  0  0  0  0  0  0  0  0  0  0
    2.6441    1.0361   -0.6505 H   0  0  0  0  0  0  0  0  0  0  0  0
   -0.0244    1.8887    1.1530 H   0  0  0  0  0  0  0  0  0  0  0  0
    0.9592   -0.4995    2.1386 H   0  0  0  0  0  0  0  0  0  0  0  0
  1  2  1  0
  2  3  1  0
  3  4  1  0
  4  5  1  0
  5  6  1  0
  6  7  1  0
  6  8  1  0
  8  9  1  0
  8  2  1  0
  5  3  1  0
  9  6  1  0
  9  4  1  0
  1 10  1  0
  2 11  1  0
  3 12  1  0
  4 13  1  0
  5 14  1  0
  7 15  1  0
  8 16  1  0
  9 17  1  0
M  END
