
     RDKit          3D

 16 17  0  0  0  0  0  0  0  0999 V2000
    1.3705   -0.7411   -1.4447 O   0  0  0  0  0  0  0  0  0  0  0  0
    1.1907   -0.7715   -0.0533 C   0  0  0  0  0  0  0  0  0  0  0  0
   -0.1409   -0.9125    0.5219 C   0  0  0  0  0  0  0  0  0  0  0  0
   -1.4098   -0.5844   -0.1889 C   0  0  0  0  0  0  0  0  0  0  0  0
   -1.2142    0.7747   -0.7665 C   0  0  0  0  0  0  0  0  0  0  0  0
   -0.1161    1.3387   -0.3321 C   0  0  0  0  0  0  0  0  0  0  0  0
    0.5488    0.4128    0.5907 C   0  0  0  0  0  0  0  0  0  0  0  0
    1.0033    0.8643    1.8261 O   0  0  0  0  0  0  0  0  0  0  0  0
    2.3141   -0.9160   -1.6874 H   0  0  0  0  0  0  0  0  0  0  0  0
    2.0316   -1.2052    0.4872 H   0  0  0  0  0  0  0  0  0  0  0  0
   -0.2476   -1.5248    1.4592 H   0  0  0  0  0  0  0  0  0  0  0  0
   -1.6878   -1.3109   -0.9760 H   0  0  0  0  0  0  0  0  0  0  0  0
   -2.2280   -0.5092    0.5449 H   0  0  0  0  0  0  0  0  0  0  0  0
   -1.9550    1.1876   -1.4725 H   0  0  0  0  0  0  0  0  0  0  0  0
    0.1840    2.3425   -0.6564 H   0  0  0  0  0  0  0  0  0  0  0  0
    0.3564    1.5551    2.1479 H   0  0  0  0  0  0  0  0  0  0  0  0
  1  2  1  0
  2  3  1  0
  3  4  1  0
  4  5  1  0
  5  6  2  0
  6  7  1  0
  7  8  1  0
  7  2  1  0
  7  3  1  0
  1  9  1  0
  2 10  1  0
  3 11  1  0
  4 12  1  0
  4 13  1  0
  5 14  1  0
  6 15  1  0
  8 16  1  0
M  END
