
     RDKit          3D

 20 21  0  0  0  0  0  0  0  0999 V2000
    3.2631   -0.0436    0.6699 O   0  0  0  0  0  0  0  0  0  0  0  0
    2.1324   -0.0624   -0.0922 C   0  0  0  0  0  0  0  0  0  0  0  0
    1.0805   -1.0970    0.3309 C   0  0  0  0  0  0  0  0  0  0  0  0
    0.0522   -0.0857   -0.1344 C   0  0  0  0  0  0  0  0  0  0  0  0
   -1.2236   -0.0662    0.6600 C   0  0  0  0  0  0  0  0  0  0  0  0
   -2.2290    0.9581    0.1655 C   0  0  0  0  0  0  0  0  0  0  0  0
   -2.4437   -0.5401    0.0045 C   0  0  0  0  0  0  0  0  0  0  0  0
    1.0705    0.9778    0.2913 C   0  0  0  0  0  0  0  0  0  0  0  0
    3.1355   -0.4410    1.5661 H   0  0  0  0  0  0  0  0  0  0  0  0
    2.3091   -0.1488   -1.1649 H   0  0  0  0  0  0  0  0  0  0  0  0
    1.1065   -2.0270   -0.2386 H   0  0  0  0  0  0  0  0  0  0  0  0
    1.1166   -1.2030    1.4428 H   0  0  0  0  0  0  0  0  0  0  0  0
   -0.0551   -0.0953   -1.2272 H   0  0  0  0  0  0  0  0  0  0  0  0
   -1.0636   -0.1355    1.7586 H   0  0  0  0  0  0  0  0  0  0  0  0
   -2.0006    1.5324   -0.7617 H   0  0  0  0  0  0  0  0  0  0  0  0
   -2.8524    1.4932    0.9099 H   0  0  0  0  0  0  0  0  0  0  0  0
   -3.1985   -1.0317    0.6819 H   0  0  0  0  0  0  0  0  0  0  0  0
   -2.3649   -0.9972   -0.9898 H   0  0  0  0  0  0  0  0  0  0  0  0
    1.0704    1.8816   -0.3197 H   0  0  0  0  0  0  0  0  0  0  0  0
    1.0945    1.1313    1.3998 H   0  0  0  0  0  0  0  0  0  0  0  0
  1  2  1  0
  2  3  1  0
  3  4  1  0
  4  5  1  0
  5  6  1  0
  6  7  1  0
  4  8  1  0
  8  2  1  0
  7  5  1  0
  1  9  1  0
  2 10  1  0
  3 11  1  0
  3 12  1  0
  4 13  1  0
  5 14  1  0
  6 15  1  0
  6 16  1  0
  7 17  1  0
  7 18  1  0
  8 19  1  0
  8 20  1  0
M  END
