
     RDKit          3D

 19 20  0  0  0  0  0  0  0  0999 V2000
   -1.0898    1.8241   -0.7123 O   0  0  0  0  0  0  0  0  0  0  0  0
   -1.4630    0.4800   -0.6993 C   0  0  0  0  0  0  0  0  0  0  0  0
   -1.3605   -0.1952    0.6677 C   0  0  0  0  0  0  0  0  0  0  0  0
   -2.3552   -1.0938    1.0278 O   0  0  0  0  0  0  0  0  0  0  0  0
   -0.4302   -0.5818   -0.4102 C   0  0  0  0  0  0  0  0  0  0  0  0
    0.9851   -0.1393   -0.4557 C   0  0  0  0  0  0  0  0  0  0  0  0
    1.4415    0.9244    0.4753 C   0  0  0  0  0  0  0  0  0  0  0  0
    1.8027   -0.0209    1.4341 O   0  0  0  0  0  0  0  0  0  0  0  0
    1.9131   -0.9539    0.4048 C   0  0  0  0  0  0  0  0  0  0  0  0
   -1.8340    2.3359   -0.2999 H   0  0  0  0  0  0  0  0  0  0  0  0
   -2.3443    0.1962   -1.3332 H   0  0  0  0  0  0  0  0  0  0  0  0
   -1.0110    0.4366    1.5217 H   0  0  0  0  0  0  0  0  0  0  0  0
   -2.4664   -1.7687    0.3376 H   0  0  0  0  0  0  0  0  0  0  0  0
   -0.6334   -1.5594   -0.9063 H   0  0  0  0  0  0  0  0  0  0  0  0
    1.3278   -0.0250   -1.5134 H   0  0  0  0  0  0  0  0  0  0  0  0
    0.6844    1.6407    0.7831 H   0  0  0  0  0  0  0  0  0  0  0  0
    2.3467    1.4449    0.0494 H   0  0  0  0  0  0  0  0  0  0  0  0
    1.5286   -1.9623    0.6700 H   0  0  0  0  0  0  0  0  0  0  0  0
    2.9578   -0.9826    0.0039 H   0  0  0  0  0  0  0  0  0  0  0  0
  1  2  1  0
  2  3  1  0
  3  4  1  0
  3  5  1  0
  5  6  1  0
  6  7  1  0
  7  8  1  0
  8  9  1  0
  5  2  1  0
  9  6  1  0
  1 10  1  0
  2 11  1  0
  3 12  1  0
  4 13  1  0
  5 14  1  0
  6 15  1  0
  7 16  1  0
  7 17  1  0
  9 18  1  0
  9 19  1  0
M  END
