
     RDKit          3D

 19 20  0  0  0  0  0  0  0  0999 V2000
    0.7251    2.1197   -0.6552 O   0  0  0  0  0  0  0  0  0  0  0  0
    0.5300    0.9816    0.1019 C   0  0  0  0  0  0  0  0  0  0  0  0
    1.7628    0.1635    0.3733 C   0  0  0  0  0  0  0  0  0  0  0  0
    1.0590   -1.0239   -0.2309 C   0  0  0  0  0  0  0  0  0  0  0  0
    0.7318   -1.9333    0.7824 O   0  0  0  0  0  0  0  0  0  0  0  0
   -0.0823   -0.1509   -0.6858 C   0  0  0  0  0  0  0  0  0  0  0  0
   -1.4395   -0.6014   -0.2416 C   0  0  0  0  0  0  0  0  0  0  0  0
   -2.5962    0.3161   -0.2320 C   0  0  0  0  0  0  0  0  0  0  0  0
   -1.9120   -0.1258    0.9595 O   0  0  0  0  0  0  0  0  0  0  0  0
    1.3651    2.7454   -0.2128 H   0  0  0  0  0  0  0  0  0  0  0  0
   -0.1055    1.2102    0.9808 H   0  0  0  0  0  0  0  0  0  0  0  0
    1.9393    0.1067    1.4722 H   0  0  0  0  0  0  0  0  0  0  0  0
    2.6891    0.4873   -0.1181 H   0  0  0  0  0  0  0  0  0  0  0  0
    1.5685   -1.5036   -1.0898 H   0  0  0  0  0  0  0  0  0  0  0  0
    1.5866   -2.4293    0.9679 H   0  0  0  0  0  0  0  0  0  0  0  0
   -0.0968    0.0447   -1.7879 H   0  0  0  0  0  0  0  0  0  0  0  0
   -1.6781   -1.6544   -0.5585 H   0  0  0  0  0  0  0  0  0  0  0  0
   -3.6128   -0.1182   -0.2663 H   0  0  0  0  0  0  0  0  0  0  0  0
   -2.4341    1.3657   -0.5216 H   0  0  0  0  0  0  0  0  0  0  0  0
  1  2  1  0
  2  3  1  0
  3  4  1  0
  4  5  1  0
  4  6  1  0
  6  7  1  0
  7  8  1  0
  8  9  1  0
  6  2  1  0
  9  7  1  0
  1 10  1  0
  2 11  1  0
  3 12  1  0
  3 13  1  0
  4 14  1  0
  5 15  1  0
  6 16  1  0
  7 17  1  0
  8 18  1  0
  8 19  1  0
M  END
