
     RDKit          3D

 19 20  0  0  0  0  0  0  0  0999 V2000
    1.0681    1.5547   -1.2504 O   0  0  0  0  0  0  0  0  0  0  0  0
    0.9684    0.7125   -0.1688 C   0  0  0  0  0  0  0  0  0  0  0  0
   -0.2604    0.9463    0.6376 C   0  0  0  0  0  0  0  0  0  0  0  0
   -1.4478    0.7664   -0.2683 C   0  0  0  0  0  0  0  0  0  0  0  0
   -1.6144   -0.5469   -0.5276 C   0  0  0  0  0  0  0  0  0  0  0  0
   -0.4545   -1.2270    0.1263 C   0  0  0  0  0  0  0  0  0  0  0  0
   -0.3672   -0.3848    1.4058 C   0  0  0  0  0  0  0  0  0  0  0  0
    0.7828   -0.7525   -0.5946 C   0  0  0  0  0  0  0  0  0  0  0  0
    1.9008   -1.5103   -0.3305 O   0  0  0  0  0  0  0  0  0  0  0  0
    0.4258    2.3269   -1.1675 H   0  0  0  0  0  0  0  0  0  0  0  0
    1.8712    0.7464    0.4981 H   0  0  0  0  0  0  0  0  0  0  0  0
   -0.2971    1.8086    1.2595 H   0  0  0  0  0  0  0  0  0  0  0  0
   -2.0978    1.5219   -0.6766 H   0  0  0  0  0  0  0  0  0  0  0  0
   -2.4270   -1.0051   -1.0954 H   0  0  0  0  0  0  0  0  0  0  0  0
   -0.5497   -2.2706    0.2839 H   0  0  0  0  0  0  0  0  0  0  0  0
   -1.3136   -0.3464    1.9429 H   0  0  0  0  0  0  0  0  0  0  0  0
    0.5216   -0.5900    1.9866 H   0  0  0  0  0  0  0  0  0  0  0  0
    0.5443   -0.7752   -1.6968 H   0  0  0  0  0  0  0  0  0  0  0  0
    2.7466   -0.9748   -0.3643 H   0  0  0  0  0  0  0  0  0  0  0  0
  1  2  1  0
  2  3  1  0
  3  4  1  0
  4  5  2  0
  5  6  1  0
  6  7  1  0
  6  8  1  0
  8  9  1  0
  8  2  1  0
  7  3  1  0
  1 10  1  0
  2 11  1  0
  3 12  1  0
  4 13  1  0
  5 14  1  0
  6 15  1  0
  7 16  1  0
  7 17  1  0
  8 18  1  0
  9 19  1  0
M  END
