
     RDKit          3D

 17 18  0  0  0  0  0  0  0  0999 V2000
   -1.4139   -0.3248    1.2527 O   0  0  0  0  0  0  0  0  0  0  0  0
   -1.2015   -0.4864   -0.0733 C   0  0  0  0  0  0  0  0  0  0  0  0
   -1.4159    0.7874   -0.8868 C   0  0  0  0  0  0  0  0  0  0  0  0
   -0.2696    1.4619   -0.7947 C   0  0  0  0  0  0  0  0  0  0  0  0
    0.6204    0.6854    0.0248 C   0  0  0  0  0  0  0  0  0  0  0  0
    0.2754    0.9528    1.3849 O   0  0  0  0  0  0  0  0  0  0  0  0
    1.4910   -0.3941   -0.1157 C   0  0  0  0  0  0  0  0  0  0  0  0
    1.9947   -1.0623    1.0186 O   0  0  0  0  0  0  0  0  0  0  0  0
    0.1993   -0.7101   -0.5342 C   0  0  0  0  0  0  0  0  0  0  0  0
   -1.9394   -1.0395    1.6809 H   0  0  0  0  0  0  0  0  0  0  0  0
   -1.8648   -1.2928   -0.4588 H   0  0  0  0  0  0  0  0  0  0  0  0
   -2.3271    1.0526   -1.4158 H   0  0  0  0  0  0  0  0  0  0  0  0
   -0.0875    2.4394   -1.2810 H   0  0  0  0  0  0  0  0  0  0  0  0
    1.0802    0.9345    1.9537 H   0  0  0  0  0  0  0  0  0  0  0  0
    2.3382   -0.2693   -0.8547 H   0  0  0  0  0  0  0  0  0  0  0  0
    2.3988   -1.9274    0.7667 H   0  0  0  0  0  0  0  0  0  0  0  0
    0.1217   -0.8072   -1.6674 H   0  0  0  0  0  0  0  0  0  0  0  0
  1  2  1  0
  2  3  1  0
  3  4  2  0
  4  5  1  0
  5  6  1  0
  5  7  1  0
  7  8  1  0
  7  9  1  0
  9  2  1  0
  9  5  1  0
  1 10  1  0
  2 11  1  0
  3 12  1  0
  4 13  1  0
  6 14  1  0
  7 15  1  0
  8 16  1  0
  9 17  1  0
M  END
