
     RDKit          3D

 19 20  0  0  0  0  0  0  0  0999 V2000
    1.8468   -0.9507    0.2838 O   0  0  0  0  0  0  0  0  0  0  0  0
    1.0316   -0.2071   -0.5152 C   0  0  0  0  0  0  0  0  0  0  0  0
    1.0952    1.2784   -0.2631 C   0  0  0  0  0  0  0  0  0  0  0  0
   -0.1894    1.6658    0.4200 C   0  0  0  0  0  0  0  0  0  0  0  0
   -1.0808    0.4611    0.3778 C   0  0  0  0  0  0  0  0  0  0  0  0
   -0.8749   -0.3784    1.4748 O   0  0  0  0  0  0  0  0  0  0  0  0
   -0.8595   -1.4891    0.6167 C   0  0  0  0  0  0  0  0  0  0  0  0
   -0.4134   -0.5727   -0.4806 C   0  0  0  0  0  0  0  0  0  0  0  0
   -1.0012   -0.8238   -1.7087 O   0  0  0  0  0  0  0  0  0  0  0  0
    1.5299   -1.1333    1.1865 H   0  0  0  0  0  0  0  0  0  0  0  0
    1.3810   -0.3530   -1.5794 H   0  0  0  0  0  0  0  0  0  0  0  0
    1.9983    1.5065    0.3354 H   0  0  0  0  0  0  0  0  0  0  0  0
    1.1715    1.8710   -1.1889 H   0  0  0  0  0  0  0  0  0  0  0  0
    0.0691    1.8685    1.4893 H   0  0  0  0  0  0  0  0  0  0  0  0
   -0.6709    2.5553   -0.0144 H   0  0  0  0  0  0  0  0  0  0  0  0
   -2.1505    0.6323    0.2126 H   0  0  0  0  0  0  0  0  0  0  0  0
   -0.1394   -2.2767    0.9223 H   0  0  0  0  0  0  0  0  0  0  0  0
   -1.8873   -1.8729    0.3837 H   0  0  0  0  0  0  0  0  0  0  0  0
   -0.8562   -1.7811   -1.9527 H   0  0  0  0  0  0  0  0  0  0  0  0
  1  2  1  0
  2  3  1  0
  3  4  1  0
  4  5  1  0
  5  6  1  0
  6  7  1  0
  7  8  1  0
  8  9  1  0
  8  2  1  0
  8  5  1  0
  1 10  1  0
  2 11  1  0
  3 12  1  0
  3 13  1  0
  4 14  1  0
  4 15  1  0
  5 16  1  0
  7 17  1  0
  7 18  1  0
  9 19  1  0
M  END
