
     RDKit          3D

 17 18  0  0  0  0  0  0  0  0999 V2000
    0.6704    1.5120    1.3620 O   0  0  0  0  0  0  0  0  0  0  0  0
    0.3447    1.1108    0.0682 C   0  0  0  0  0  0  0  0  0  0  0  0
    1.5132    0.3633   -0.5334 C   0  0  0  0  0  0  0  0  0  0  0  0
    1.3493   -0.9391   -0.3769 C   0  0  0  0  0  0  0  0  0  0  0  0
    0.0712   -1.1702    0.3357 C   0  0  0  0  0  0  0  0  0  0  0  0
    0.3782   -1.1497    1.7102 O   0  0  0  0  0  0  0  0  0  0  0  0
   -0.7000    0.0441    0.0212 C   0  0  0  0  0  0  0  0  0  0  0  0
   -1.6585   -0.0349   -1.1375 C   0  0  0  0  0  0  0  0  0  0  0  0
   -2.0087    0.2312    0.2164 O   0  0  0  0  0  0  0  0  0  0  0  0
   -0.1319    1.8661    1.7973 H   0  0  0  0  0  0  0  0  0  0  0  0
    0.0536    1.9724   -0.5687 H   0  0  0  0  0  0  0  0  0  0  0  0
    2.3429    0.8602   -1.0132 H   0  0  0  0  0  0  0  0  0  0  0  0
    2.0760   -1.6910   -0.7369 H   0  0  0  0  0  0  0  0  0  0  0  0
   -0.4150   -2.1194    0.0465 H   0  0  0  0  0  0  0  0  0  0  0  0
   -0.3445   -0.6544    2.1663 H   0  0  0  0  0  0  0  0  0  0  0  0
   -1.6172    0.8300   -1.8133 H   0  0  0  0  0  0  0  0  0  0  0  0
   -1.9239   -1.0313   -1.5439 H   0  0  0  0  0  0  0  0  0  0  0  0
  1  2  1  0
  2  3  1  0
  3  4  2  0
  4  5  1  0
  5  6  1  0
  5  7  1  0
  7  8  1  0
  8  9  1  0
  7  2  1  0
  9  7  1  0
  1 10  1  0
  2 11  1  0
  3 12  1  0
  4 13  1  0
  5 14  1  0
  6 15  1  0
  8 16  1  0
  8 17  1  0
M  END
