
     RDKit          3D

 17 19  0  0  0  0  0  0  0  0999 V2000
    1.7209    1.4978    0.3124 O   0  0  0  0  0  0  0  0  0  0  0  0
    1.4516    0.2566   -0.2047 C   0  0  0  0  0  0  0  0  0  0  0  0
    0.3502   -0.4940    0.5173 C   0  0  0  0  0  0  0  0  0  0  0  0
   -0.6759    0.2587    1.2500 C   0  0  0  0  0  0  0  0  0  0  0  0
   -1.4450    0.9780    0.4578 C   0  0  0  0  0  0  0  0  0  0  0  0
   -0.9960    0.7727   -0.9368 C   0  0  0  0  0  0  0  0  0  0  0  0
    0.2228   -0.0617   -0.9274 C   0  0  0  0  0  0  0  0  0  0  0  0
    0.0675   -1.4090   -1.2971 O   0  0  0  0  0  0  0  0  0  0  0  0
    0.0956   -1.8836    0.0339 C   0  0  0  0  0  0  0  0  0  0  0  0
    2.6492    1.5530    0.6444 H   0  0  0  0  0  0  0  0  0  0  0  0
    2.3298   -0.3817   -0.4094 H   0  0  0  0  0  0  0  0  0  0  0  0
   -0.7954    0.2318    2.3266 H   0  0  0  0  0  0  0  0  0  0  0  0
   -2.2814    1.6327    0.7002 H   0  0  0  0  0  0  0  0  0  0  0  0
   -1.8251    0.2237   -1.4569 H   0  0  0  0  0  0  0  0  0  0  0  0
   -0.8953    1.7311   -1.4945 H   0  0  0  0  0  0  0  0  0  0  0  0
   -0.9008   -2.2970    0.3476 H   0  0  0  0  0  0  0  0  0  0  0  0
    0.9273   -2.6092    0.1365 H   0  0  0  0  0  0  0  0  0  0  0  0
  1  2  1  0
  2  3  1  0
  3  4  1  0
  4  5  2  0
  5  6  1  0
  6  7  1  0
  7  8  1  0
  8  9  1  0
  7  2  1  0
  7  3  1  0
  9  3  1  0
  1 10  1  0
  2 11  1  0
  4 12  1  0
  5 13  1  0
  6 14  1  0
  6 15  1  0
  9 16  1  0
  9 17  1  0
M  END
