
     RDKit          3D

 17 18  0  0  0  0  0  0  0  0999 V2000
    1.0337    0.7783   -1.6599 O   0  0  0  0  0  0  0  0  0  0  0  0
    1.1143    0.4310   -0.3234 C   0  0  0  0  0  0  0  0  0  0  0  0
    1.2941   -0.9863    0.1009 C   0  0  0  0  0  0  0  0  0  0  0  0
    2.0562   -1.1917    1.2695 O   0  0  0  0  0  0  0  0  0  0  0  0
   -0.0183   -0.4087    0.2061 C   0  0  0  0  0  0  0  0  0  0  0  0
   -1.1775   -0.7175   -0.6214 C   0  0  0  0  0  0  0  0  0  0  0  0
   -2.1488    0.1063   -0.2362 C   0  0  0  0  0  0  0  0  0  0  0  0
   -1.5593    0.9357    0.8543 C   0  0  0  0  0  0  0  0  0  0  0  0
   -0.5867    0.0793    1.3722 O   0  0  0  0  0  0  0  0  0  0  0  0
    1.7782    1.4219   -1.8548 H   0  0  0  0  0  0  0  0  0  0  0  0
    1.5532    1.2178    0.3424 H   0  0  0  0  0  0  0  0  0  0  0  0
    1.4920   -1.7712   -0.6626 H   0  0  0  0  0  0  0  0  0  0  0  0
    2.8695   -1.6957    1.0680 H   0  0  0  0  0  0  0  0  0  0  0  0
   -1.2564   -1.4653   -1.4017 H   0  0  0  0  0  0  0  0  0  0  0  0
   -3.1664    0.2063   -0.5929 H   0  0  0  0  0  0  0  0  0  0  0  0
   -0.9873    1.7965    0.4066 H   0  0  0  0  0  0  0  0  0  0  0  0
   -2.2905    1.2631    1.5955 H   0  0  0  0  0  0  0  0  0  0  0  0
  1  2  1  0
  2  3  1  0
  3  4  1  0
  3  5  1  0
  5  6  1  0
  6  7  2  0
  7  8  1  0
  8  9  1  0
  5  2  1  0
  9  5  1  0
  1 10  1  0
  2 11  1  0
  3 12  1  0
  4 13  1  0
  6 14  1  0
  7 15  1  0
  8 16  1  0
  8 17  1  0
M  END
