
     RDKit          3D

 19 20  0  0  0  0  0  0  0  0999 V2000
    0.2818    2.4585   -0.4412 O   0  0  0  0  0  0  0  0  0  0  0  0
    0.3105    1.0782   -0.7006 C   0  0  0  0  0  0  0  0  0  0  0  0
   -1.1614    0.6547   -0.8543 C   0  0  0  0  0  0  0  0  0  0  0  0
   -1.3069   -0.7090   -0.8448 O   0  0  0  0  0  0  0  0  0  0  0  0
   -1.3756   -1.2694    0.4179 C   0  0  0  0  0  0  0  0  0  0  0  0
   -0.1227   -1.8064    0.8022 O   0  0  0  0  0  0  0  0  0  0  0  0
    0.8137   -1.1645    0.0165 C   0  0  0  0  0  0  0  0  0  0  0  0
    2.0109   -0.5018    0.5188 C   0  0  0  0  0  0  0  0  0  0  0  0
    0.7971    0.3087    0.4775 C   0  0  0  0  0  0  0  0  0  0  0  0
   -0.3255    2.5837    0.3326 H   0  0  0  0  0  0  0  0  0  0  0  0
    0.8790    0.8495   -1.6284 H   0  0  0  0  0  0  0  0  0  0  0  0
   -1.6821    1.1324    0.0236 H   0  0  0  0  0  0  0  0  0  0  0  0
   -1.5438    1.1269   -1.7661 H   0  0  0  0  0  0  0  0  0  0  0  0
   -1.8061   -0.6264    1.1836 H   0  0  0  0  0  0  0  0  0  0  0  0
   -2.0641   -2.1599    0.3327 H   0  0  0  0  0  0  0  0  0  0  0  0
    0.7520   -1.3951   -1.0440 H   0  0  0  0  0  0  0  0  0  0  0  0
    2.8433   -0.3534   -0.2095 H   0  0  0  0  0  0  0  0  0  0  0  0
    2.3995   -0.7630    1.5260 H   0  0  0  0  0  0  0  0  0  0  0  0
    0.3004    0.5563    1.4265 H   0  0  0  0  0  0  0  0  0  0  0  0
  1  2  1  0
  2  3  1  0
  3  4  1  0
  4  5  1  0
  5  6  1  0
  6  7  1  0
  7  8  1  0
  8  9  1  0
  9  2  1  0
  9  7  1  0
  1 10  1  0
  2 11  1  0
  3 12  1  0
  3 13  1  0
  5 14  1  0
  5 15  1  0
  7 16  1  0
  8 17  1  0
  8 18  1  0
  9 19  1  0
M  END
