
     RDKit          3D

 18 19  0  0  0  0  0  0  0  0999 V2000
    2.7851   -0.5081   -0.3624 O   0  0  0  0  0  0  0  0  0  0  0  0
    1.5733   -0.2125    0.2423 C   0  0  0  0  0  0  0  0  0  0  0  0
    1.3089    1.2287    0.3508 C   0  0  0  0  0  0  0  0  0  0  0  0
    0.0029    1.4140    0.2451 C   0  0  0  0  0  0  0  0  0  0  0  0
   -0.7005    0.1215    0.0580 C   0  0  0  0  0  0  0  0  0  0  0  0
   -1.6244   -0.4617    1.0145 C   0  0  0  0  0  0  0  0  0  0  0  0
   -2.1013    0.0211   -0.3421 C   0  0  0  0  0  0  0  0  0  0  0  0
    0.3972   -0.7312   -0.5507 C   0  0  0  0  0  0  0  0  0  0  0  0
    3.2902   -1.0741    0.2738 H   0  0  0  0  0  0  0  0  0  0  0  0
    1.4849   -0.6440    1.2621 H   0  0  0  0  0  0  0  0  0  0  0  0
    2.0582    2.0340    0.4958 H   0  0  0  0  0  0  0  0  0  0  0  0
   -0.5082    2.3710    0.2864 H   0  0  0  0  0  0  0  0  0  0  0  0
   -1.6196   -1.5786    1.1296 H   0  0  0  0  0  0  0  0  0  0  0  0
   -1.9559    0.0755    1.9176 H   0  0  0  0  0  0  0  0  0  0  0  0
   -2.7158    0.9501   -0.2857 H   0  0  0  0  0  0  0  0  0  0  0  0
   -2.3815   -0.7189   -1.1148 H   0  0  0  0  0  0  0  0  0  0  0  0
    0.2640   -1.8086   -0.3446 H   0  0  0  0  0  0  0  0  0  0  0  0
    0.4426   -0.4783   -1.6209 H   0  0  0  0  0  0  0  0  0  0  0  0
  1  2  1  0
  2  3  1  0
  3  4  2  0
  4  5  1  0
  5  6  1  0
  6  7  1  0
  5  8  1  0
  8  2  1  0
  7  5  1  0
  1  9  1  0
  2 10  1  0
  3 11  1  0
  4 12  1  0
  6 13  1  0
  6 14  1  0
  7 15  1  0
  7 16  1  0
  8 17  1  0
  8 18  1  0
M  END
