
     RDKit          3D

 21 22  0  0  0  0  0  0  0  0999 V2000
   -0.7659    1.9943    0.5429 O   0  0  0  0  0  0  0  0  0  0  0  0
   -0.6740    0.6184    0.6344 C   0  0  0  0  0  0  0  0  0  0  0  0
   -1.8252   -0.0970   -0.0318 C   0  0  0  0  0  0  0  0  0  0  0  0
   -1.2010   -1.4388   -0.4220 C   0  0  0  0  0  0  0  0  0  0  0  0
    0.2206   -1.1000   -0.8047 C   0  0  0  0  0  0  0  0  0  0  0  0
    0.5715    0.0567    0.0414 C   0  0  0  0  0  0  0  0  0  0  0  0
    1.5258    1.0333   -0.5875 C   0  0  0  0  0  0  0  0  0  0  0  0
    2.5609    0.1789   -0.1320 O   0  0  0  0  0  0  0  0  0  0  0  0
    1.7226   -0.0658    0.9799 C   0  0  0  0  0  0  0  0  0  0  0  0
   -1.6124    2.2026    0.0815 H   0  0  0  0  0  0  0  0  0  0  0  0
   -0.6484    0.3679    1.7364 H   0  0  0  0  0  0  0  0  0  0  0  0
   -2.6394   -0.3574    0.6907 H   0  0  0  0  0  0  0  0  0  0  0  0
   -2.1932    0.4332   -0.9208 H   0  0  0  0  0  0  0  0  0  0  0  0
   -1.1979   -2.1102    0.4666 H   0  0  0  0  0  0  0  0  0  0  0  0
   -1.7938   -1.8432   -1.2609 H   0  0  0  0  0  0  0  0  0  0  0  0
    0.2722   -0.8606   -1.8986 H   0  0  0  0  0  0  0  0  0  0  0  0
    0.9085   -1.9453   -0.5519 H   0  0  0  0  0  0  0  0  0  0  0  0
    1.6279    1.9961   -0.0431 H   0  0  0  0  0  0  0  0  0  0  0  0
    1.5068    1.1172   -1.6785 H   0  0  0  0  0  0  0  0  0  0  0  0
    1.7500    0.8255    1.6655 H   0  0  0  0  0  0  0  0  0  0  0  0
    1.8843   -1.0058    1.4925 H   0  0  0  0  0  0  0  0  0  0  0  0
  1  2  1  0
  2  3  1  0
  3  4  1  0
  4  5  1  0
  5  6  1  0
  6  7  1  0
  7  8  1  0
  8  9  1  0
  6  2  1  0
  9  6  1  0
  1 10  1  0
  2 11  1  0
  3 12  1  0
  3 13  1  0
  4 14  1  0
  4 15  1  0
  5 16  1  0
  5 17  1  0
  7 18  1  0
  7 19  1  0
  9 20  1  0
  9 21  1  0
M  END
