
     RDKit          3D

 19 20  0  0  0  0  0  0  0  0999 V2000
    0.9980    1.0528    1.5530 O   0  0  0  0  0  0  0  0  0  0  0  0
    1.1616    0.8503    0.1888 C   0  0  0  0  0  0  0  0  0  0  0  0
    1.8012   -0.5216   -0.0812 C   0  0  0  0  0  0  0  0  0  0  0  0
    0.7330   -0.6880   -1.1748 C   0  0  0  0  0  0  0  0  0  0  0  0
   -0.0894    0.2797   -0.4088 C   0  0  0  0  0  0  0  0  0  0  0  0
   -0.9341    1.1069   -1.0588 O   0  0  0  0  0  0  0  0  0  0  0  0
   -2.0154    0.4052   -0.4799 C   0  0  0  0  0  0  0  0  0  0  0  0
   -1.0809   -0.2105    0.5576 C   0  0  0  0  0  0  0  0  0  0  0  0
   -1.2377   -1.5700    0.7108 O   0  0  0  0  0  0  0  0  0  0  0  0
    1.1237    1.9961    1.8201 H   0  0  0  0  0  0  0  0  0  0  0  0
    1.6261    1.6723   -0.3688 H   0  0  0  0  0  0  0  0  0  0  0  0
    2.8261   -0.4873   -0.4418 H   0  0  0  0  0  0  0  0  0  0  0  0
    1.5618   -1.2470    0.7232 H   0  0  0  0  0  0  0  0  0  0  0  0
    1.1390   -0.2503   -2.1054 H   0  0  0  0  0  0  0  0  0  0  0  0
    0.3565   -1.7017   -1.2971 H   0  0  0  0  0  0  0  0  0  0  0  0
   -2.3900   -0.3900   -1.1731 H   0  0  0  0  0  0  0  0  0  0  0  0
   -2.7981    1.0244   -0.0490 H   0  0  0  0  0  0  0  0  0  0  0  0
   -1.0330    0.3803    1.5177 H   0  0  0  0  0  0  0  0  0  0  0  0
   -1.7484   -1.7016    1.5676 H   0  0  0  0  0  0  0  0  0  0  0  0
  1  2  1  0
  2  3  1  0
  3  4  1  0
  4  5  1  0
  5  6  1  0
  6  7  1  0
  7  8  1  0
  8  9  1  0
  5  2  1  0
  8  5  1  0
  1 10  1  0
  2 11  1  0
  3 12  1  0
  3 13  1  0
  4 14  1  0
  4 15  1  0
  7 16  1  0
  7 17  1  0
  8 18  1  0
  9 19  1  0
M  END
