
     RDKit          3D

 17 19  0  0  0  0  0  0  0  0999 V2000
    2.3592   -0.9564    0.3746 O   0  0  0  0  0  0  0  0  0  0  0  0
    1.2740   -0.0937    0.5324 C   0  0  0  0  0  0  0  0  0  0  0  0
    0.7754    0.4147   -0.8210 C   0  0  0  0  0  0  0  0  0  0  0  0
   -0.0750    1.6508   -0.6899 C   0  0  0  0  0  0  0  0  0  0  0  0
   -1.2308    1.3309   -0.1335 C   0  0  0  0  0  0  0  0  0  0  0  0
   -1.2783   -0.1212    0.1613 C   0  0  0  0  0  0  0  0  0  0  0  0
   -2.4832   -0.7559    0.3220 O   0  0  0  0  0  0  0  0  0  0  0  0
   -0.0597   -0.8076    0.6692 C   0  0  0  0  0  0  0  0  0  0  0  0
   -0.2699   -0.6578   -0.7627 C   0  0  0  0  0  0  0  0  0  0  0  0
    2.9239   -1.0107    1.1646 H   0  0  0  0  0  0  0  0  0  0  0  0
    1.3870    0.6811    1.3036 H   0  0  0  0  0  0  0  0  0  0  0  0
    1.4886    0.4046   -1.6326 H   0  0  0  0  0  0  0  0  0  0  0  0
    0.2007    2.6526   -0.9976 H   0  0  0  0  0  0  0  0  0  0  0  0
   -2.0211    2.0233    0.0748 H   0  0  0  0  0  0  0  0  0  0  0  0
   -2.4452   -1.6054   -0.1911 H   0  0  0  0  0  0  0  0  0  0  0  0
   -0.1420   -1.7319    1.2316 H   0  0  0  0  0  0  0  0  0  0  0  0
   -0.4035   -1.4172   -1.4992 H   0  0  0  0  0  0  0  0  0  0  0  0
  1  2  1  0
  2  3  1  0
  3  4  1  0
  4  5  2  0
  5  6  1  0
  6  7  1  0
  6  8  1  0
  8  9  1  0
  8  2  1  0
  9  3  1  0
  9  6  1  0
  1 10  1  0
  2 11  1  0
  3 12  1  0
  4 13  1  0
  5 14  1  0
  7 15  1  0
  8 16  1  0
  9 17  1  0
M  END
