
     RDKit          3D

 19 21  0  0  0  0  0  0  0  0999 V2000
    3.4483   -0.3986    0.1515 O   0  0  0  0  0  0  0  0  0  0  0  0
    2.1969    0.1154   -0.2180 C   0  0  0  0  0  0  0  0  0  0  0  0
    1.2428    0.4804    0.8153 C   0  0  0  0  0  0  0  0  0  0  0  0
   -0.1782    0.7704    0.5676 C   0  0  0  0  0  0  0  0  0  0  0  0
   -1.4002    1.2797    0.5275 C   0  0  0  0  0  0  0  0  0  0  0  0
   -2.3143    0.4134   -0.3165 C   0  0  0  0  0  0  0  0  0  0  0  0
   -1.5329   -0.9411   -0.1075 C   0  0  0  0  0  0  0  0  0  0  0  0
   -0.1980   -0.3934   -0.4355 C   0  0  0  0  0  0  0  0  0  0  0  0
    1.0748   -0.8555    0.1289 C   0  0  0  0  0  0  0  0  0  0  0  0
    3.6382   -0.1987    1.1070 H   0  0  0  0  0  0  0  0  0  0  0  0
    2.1468    0.6228   -1.2007 H   0  0  0  0  0  0  0  0  0  0  0  0
    1.5936    0.4971    1.8935 H   0  0  0  0  0  0  0  0  0  0  0  0
   -1.7587    2.1762    1.0034 H   0  0  0  0  0  0  0  0  0  0  0  0
   -2.1629    0.6709   -1.3665 H   0  0  0  0  0  0  0  0  0  0  0  0
   -3.3214    0.3422    0.0588 H   0  0  0  0  0  0  0  0  0  0  0  0
   -1.6363   -1.1702    0.9600 H   0  0  0  0  0  0  0  0  0  0  0  0
   -1.9274   -1.6950   -0.7921 H   0  0  0  0  0  0  0  0  0  0  0  0
   -0.1526    0.0105   -1.4902 H   0  0  0  0  0  0  0  0  0  0  0  0
    1.2414   -1.7265    0.7451 H   0  0  0  0  0  0  0  0  0  0  0  0
  1  2  1  0
  2  3  1  0
  3  4  1  0
  4  5  2  0
  5  6  1  0
  6  7  1  0
  7  8  1  0
  8  9  1  0
  9  2  1  0
  9  3  1  0
  8  4  1  0
  1 10  1  0
  2 11  1  0
  3 12  1  0
  5 13  1  0
  6 14  1  0
  6 15  1  0
  7 16  1  0
  7 17  1  0
  8 18  1  0
  9 19  1  0
M  END
