
     RDKit          3D

 19 21  0  0  0  0  0  0  0  0999 V2000
    2.0941   -1.2783   -0.5859 O   0  0  0  0  0  0  0  0  0  0  0  0
    1.4571   -0.5512    0.4197 C   0  0  0  0  0  0  0  0  0  0  0  0
    1.6887    0.9759    0.4220 C   0  0  0  0  0  0  0  0  0  0  0  0
    0.4092    0.3670    0.1709 C   0  0  0  0  0  0  0  0  0  0  0  0
   -0.8515    0.5758    0.8866 C   0  0  0  0  0  0  0  0  0  0  0  0
   -1.7749   -0.5912    0.5198 C   0  0  0  0  0  0  0  0  0  0  0  0
   -1.4419   -0.6209   -0.9857 C   0  0  0  0  0  0  0  0  0  0  0  0
   -0.4668    0.5636   -0.9786 C   0  0  0  0  0  0  0  0  0  0  0  0
   -1.2021    1.4612   -0.1624 O   0  0  0  0  0  0  0  0  0  0  0  0
    2.9080   -0.8675   -0.9208 H   0  0  0  0  0  0  0  0  0  0  0  0
    1.6120   -1.0269    1.4289 H   0  0  0  0  0  0  0  0  0  0  0  0
    2.3141    1.3583   -0.4217 H   0  0  0  0  0  0  0  0  0  0  0  0
    1.8527    1.4535    1.4180 H   0  0  0  0  0  0  0  0  0  0  0  0
   -0.9046    0.9518    1.8808 H   0  0  0  0  0  0  0  0  0  0  0  0
   -1.5037   -1.5161    1.0177 H   0  0  0  0  0  0  0  0  0  0  0  0
   -2.8247   -0.2688    0.6579 H   0  0  0  0  0  0  0  0  0  0  0  0
   -0.9271   -1.5476   -1.2473 H   0  0  0  0  0  0  0  0  0  0  0  0
   -2.3052   -0.3674   -1.5977 H   0  0  0  0  0  0  0  0  0  0  0  0
   -0.1334    0.9287   -1.9221 H   0  0  0  0  0  0  0  0  0  0  0  0
  1  2  1  0
  2  3  1  0
  3  4  1  0
  4  5  1  0
  5  6  1  0
  6  7  1  0
  7  8  1  0
  8  9  1  0
  4  2  1  0
  9  5  1  0
  8  4  1  0
  1 10  1  0
  2 11  1  0
  3 12  1  0
  3 13  1  0
  5 14  1  0
  6 15  1  0
  6 16  1  0
  7 17  1  0
  7 18  1  0
  8 19  1  0
M  END
