
     RDKit          3D

 19 20  0  0  0  0  0  0  0  0999 V2000
    2.5388    0.2121    0.8200 O   0  0  0  0  0  0  0  0  0  0  0  0
    1.4250    0.1137    0.0439 C   0  0  0  0  0  0  0  0  0  0  0  0
    0.3265    1.0902    0.4240 C   0  0  0  0  0  0  0  0  0  0  0  0
   -0.8108    0.8979   -0.5498 C   0  0  0  0  0  0  0  0  0  0  0  0
   -1.9796    0.1497    0.1075 C   0  0  0  0  0  0  0  0  0  0  0  0
   -1.6104   -1.1887   -0.0249 O   0  0  0  0  0  0  0  0  0  0  0  0
   -0.4441   -1.2142   -0.7791 C   0  0  0  0  0  0  0  0  0  0  0  0
    0.7701   -1.2713    0.1172 C   0  0  0  0  0  0  0  0  0  0  0  0
   -0.4766   -0.0455   -1.5505 O   0  0  0  0  0  0  0  0  0  0  0  0
    2.6200    1.0010    1.3803 H   0  0  0  0  0  0  0  0  0  0  0  0
    1.6107    0.2803   -1.0484 H   0  0  0  0  0  0  0  0  0  0  0  0
    0.6970    2.1350    0.4538 H   0  0  0  0  0  0  0  0  0  0  0  0
   -0.0428    0.7540    1.4261 H   0  0  0  0  0  0  0  0  0  0  0  0
   -1.1595    1.8348   -1.0003 H   0  0  0  0  0  0  0  0  0  0  0  0
   -2.8621    0.2948   -0.5509 H   0  0  0  0  0  0  0  0  0  0  0  0
   -2.1191    0.4759    1.1338 H   0  0  0  0  0  0  0  0  0  0  0  0
   -0.3934   -2.0780   -1.4729 H   0  0  0  0  0  0  0  0  0  0  0  0
    1.4630   -2.0740   -0.1246 H   0  0  0  0  0  0  0  0  0  0  0  0
    0.4473   -1.3676    1.1946 H   0  0  0  0  0  0  0  0  0  0  0  0
  1  2  1  0
  2  3  1  0
  3  4  1  0
  4  5  1  0
  5  6  1  0
  6  7  1  0
  7  8  1  0
  7  9  1  0
  8  2  1  0
  9  4  1  0
  1 10  1  0
  2 11  1  0
  3 12  1  0
  3 13  1  0
  4 14  1  0
  5 15  1  0
  5 16  1  0
  7 17  1  0
  8 18  1  0
  8 19  1  0
M  END
