
     RDKit          3D

 19 20  0  0  0  0  0  0  0  0999 V2000
    2.1942   -0.5133   -1.1268 O   0  0  0  0  0  0  0  0  0  0  0  0
    1.7197    0.0506    0.0420 C   0  0  0  0  0  0  0  0  0  0  0  0
    0.5243   -0.4570    0.7343 C   0  0  0  0  0  0  0  0  0  0  0  0
    0.4292   -0.3820    2.1315 O   0  0  0  0  0  0  0  0  0  0  0  0
   -0.5043   -1.3082    0.0811 C   0  0  0  0  0  0  0  0  0  0  0  0
   -1.4931   -0.3320   -0.5025 C   0  0  0  0  0  0  0  0  0  0  0  0
   -0.5700    0.7966   -0.9536 C   0  0  0  0  0  0  0  0  0  0  0  0
    0.5078    0.8965    0.0699 C   0  0  0  0  0  0  0  0  0  0  0  0
    0.4721    2.0451    0.8695 O   0  0  0  0  0  0  0  0  0  0  0  0
    1.5776   -1.1248   -1.5604 H   0  0  0  0  0  0  0  0  0  0  0  0
    2.5466    0.4064    0.7181 H   0  0  0  0  0  0  0  0  0  0  0  0
   -0.3225    0.2715    2.2968 H   0  0  0  0  0  0  0  0  0  0  0  0
   -0.1093   -1.9447   -0.7450 H   0  0  0  0  0  0  0  0  0  0  0  0
   -1.0094   -2.0191    0.7797 H   0  0  0  0  0  0  0  0  0  0  0  0
   -2.2509    0.0103    0.2151 H   0  0  0  0  0  0  0  0  0  0  0  0
   -1.9680   -0.8007   -1.3735 H   0  0  0  0  0  0  0  0  0  0  0  0
   -1.1485    1.7390   -1.0203 H   0  0  0  0  0  0  0  0  0  0  0  0
   -0.1813    0.5645   -1.9764 H   0  0  0  0  0  0  0  0  0  0  0  0
   -0.4142    2.1015    1.3205 H   0  0  0  0  0  0  0  0  0  0  0  0
  1  2  1  0
  2  3  1  0
  3  4  1  0
  3  5  1  0
  5  6  1  0
  6  7  1  0
  7  8  1  0
  8  9  1  0
  8  2  1  0
  8  3  1  0
  1 10  1  0
  2 11  1  0
  4 12  1  0
  5 13  1  0
  5 14  1  0
  6 15  1  0
  6 16  1  0
  7 17  1  0
  7 18  1  0
  9 19  1  0
M  END
