
     RDKit          3D

 16 17  0  0  0  0  0  0  0  0999 V2000
    1.6661   -1.3219   -0.1346 O   0  0  0  0  0  0  0  0  0  0  0  0
    0.7836   -0.4225   -0.6652 C   0  0  0  0  0  0  0  0  0  0  0  0
    0.4187    0.7494    0.2022 C   0  0  0  0  0  0  0  0  0  0  0  0
    1.1606    1.6688    0.6165 O   0  0  0  0  0  0  0  0  0  0  0  0
   -0.8056    0.8721   -0.6705 C   0  0  0  0  0  0  0  0  0  0  0  0
   -0.6684   -0.6295   -0.4125 C   0  0  0  0  0  0  0  0  0  0  0  0
   -1.4398   -1.5198   -0.8277 O   0  0  0  0  0  0  0  0  0  0  0  0
   -0.3860   -0.2330    1.0150 C   0  0  0  0  0  0  0  0  0  0  0  0
    2.5461   -0.8717   -0.0239 H   0  0  0  0  0  0  0  0  0  0  0  0
    0.9470   -0.1274   -1.7323 H   0  0  0  0  0  0  0  0  0  0  0  0
    0.9526    2.0111    1.5171 H   0  0  0  0  0  0  0  0  0  0  0  0
   -0.5179    1.1809   -1.6854 H   0  0  0  0  0  0  0  0  0  0  0  0
   -1.6857    1.3401   -0.2220 H   0  0  0  0  0  0  0  0  0  0  0  0
   -2.0034   -1.9598   -0.1319 H   0  0  0  0  0  0  0  0  0  0  0  0
   -1.2075    0.2140    1.5761 H   0  0  0  0  0  0  0  0  0  0  0  0
    0.2397   -0.9510    1.5791 H   0  0  0  0  0  0  0  0  0  0  0  0
  1  2  1  0
  2  3  1  0
  3  4  1  0
  3  5  1  0
  5  6  1  0
  6  7  1  0
  6  8  1  0
  6  2  1  0
  8  3  1  0
  1  9  1  0
  2 10  1  0
  4 11  1  0
  5 12  1  0
  5 13  1  0
  7 14  1  0
  8 15  1  0
  8 16  1  0
M  END
