
     RDKit          3D

 21 22  0  0  0  0  0  0  0  0999 V2000
    3.3219    0.4866   -0.0236 O   0  0  0  0  0  0  0  0  0  0  0  0
    2.0503    0.0555    0.3799 C   0  0  0  0  0  0  0  0  0  0  0  0
    1.0618   -0.2722   -0.7619 C   0  0  0  0  0  0  0  0  0  0  0  0
    0.0407   -1.2919   -0.3981 C   0  0  0  0  0  0  0  0  0  0  0  0
   -1.2976   -1.0869   -1.0165 C   0  0  0  0  0  0  0  0  0  0  0  0
   -2.0274    0.1308   -0.6385 C   0  0  0  0  0  0  0  0  0  0  0  0
   -1.2820    1.2253    0.0013 C   0  0  0  0  0  0  0  0  0  0  0  0
   -0.2317    0.8731    0.8006 O   0  0  0  0  0  0  0  0  0  0  0  0
    0.9395    0.9791    0.0216 C   0  0  0  0  0  0  0  0  0  0  0  0
    3.9350    0.3768    0.7456 H   0  0  0  0  0  0  0  0  0  0  0  0
    1.9737   -0.5280    1.3071 H   0  0  0  0  0  0  0  0  0  0  0  0
    1.4772   -0.2768   -1.7811 H   0  0  0  0  0  0  0  0  0  0  0  0
   -0.0925   -1.3344    0.7091 H   0  0  0  0  0  0  0  0  0  0  0  0
    0.4177   -2.2862   -0.7138 H   0  0  0  0  0  0  0  0  0  0  0  0
   -1.1610   -1.1944   -2.1327 H   0  0  0  0  0  0  0  0  0  0  0  0
   -1.9127   -1.9952   -0.7451 H   0  0  0  0  0  0  0  0  0  0  0  0
   -2.5121    0.5428   -1.5745 H   0  0  0  0  0  0  0  0  0  0  0  0
   -2.9121   -0.1230    0.0184 H   0  0  0  0  0  0  0  0  0  0  0  0
   -1.9817    1.8389    0.6414 H   0  0  0  0  0  0  0  0  0  0  0  0
   -0.9206    1.9602   -0.7759 H   0  0  0  0  0  0  0  0  0  0  0  0
    1.1138    1.9198   -0.5269 H   0  0  0  0  0  0  0  0  0  0  0  0
  1  2  1  0
  2  3  1  0
  3  4  1  0
  4  5  1  0
  5  6  1  0
  6  7  1  0
  7  8  1  0
  8  9  1  0
  9  2  1  0
  9  3  1  0
  1 10  1  0
  2 11  1  0
  3 12  1  0
  4 13  1  0
  4 14  1  0
  5 15  1  0
  5 16  1  0
  6 17  1  0
  6 18  1  0
  7 19  1  0
  7 20  1  0
  9 21  1  0
M  END
