
     RDKit          3D

 21 22  0  0  0  0  0  0  0  0999 V2000
    3.0977    0.6439    1.8067 O   0  0  0  0  0  0  0  0  0  0  0  0
    2.8924    0.3689    0.4285 C   0  0  0  0  0  0  0  0  0  0  0  0
    2.4604   -0.8847    0.0363 C   0  0  0  0  0  0  0  0  0  0  0  0
    1.5390    0.2018    0.0120 C   0  0  0  0  0  0  0  0  0  0  0  0
    0.3851   -0.4241   -0.0398 O   0  0  0  0  0  0  0  0  0  0  0  0
   -0.6564    0.3389   -0.5275 C   0  0  0  0  0  0  0  0  0  0  0  0
   -1.9578   -0.3734   -0.5814 C   0  0  0  0  0  0  0  0  0  0  0  0
   -2.6155   -0.9352    0.6169 C   0  0  0  0  0  0  0  0  0  0  0  0
   -3.1254    0.3792    0.0306 C   0  0  0  0  0  0  0  0  0  0  0  0
    3.4740    1.5479    1.9369 H   0  0  0  0  0  0  0  0  0  0  0  0
    3.7214    0.8422   -0.1482 H   0  0  0  0  0  0  0  0  0  0  0  0
    2.3534   -1.6552    0.8339 H   0  0  0  0  0  0  0  0  0  0  0  0
    2.9177   -1.3775   -0.8764 H   0  0  0  0  0  0  0  0  0  0  0  0
    1.3475    1.1917   -0.3618 H   0  0  0  0  0  0  0  0  0  0  0  0
   -0.7202    1.2719    0.0979 H   0  0  0  0  0  0  0  0  0  0  0  0
   -0.4389    0.7299   -1.5643 H   0  0  0  0  0  0  0  0  0  0  0  0
   -2.1945   -0.8627   -1.5443 H   0  0  0  0  0  0  0  0  0  0  0  0
   -2.1922   -0.8340    1.6294 H   0  0  0  0  0  0  0  0  0  0  0  0
   -3.2445   -1.8336    0.4892 H   0  0  0  0  0  0  0  0  0  0  0  0
   -2.9475    1.3062    0.5795 H   0  0  0  0  0  0  0  0  0  0  0  0
   -4.0957    0.3578   -0.5053 H   0  0  0  0  0  0  0  0  0  0  0  0
  1  2  1  0
  2  3  1  0
  3  4  1  0
  4  5  1  0
  5  6  1  0
  6  7  1  0
  7  8  1  0
  8  9  1  0
  4  2  1  0
  9  7  1  0
  1 10  1  0
  2 11  1  0
  3 12  1  0
  3 13  1  0
  4 14  1  0
  6 15  1  0
  6 16  1  0
  7 17  1  0
  8 18  1  0
  8 19  1  0
  9 20  1  0
  9 21  1  0
M  END
