
     RDKit          3D

 19 20  0  0  0  0  0  0  0  0999 V2000
   -1.0826    1.9956   -0.1383 O   0  0  0  0  0  0  0  0  0  0  0  0
   -1.0841    0.6604   -0.4818 C   0  0  0  0  0  0  0  0  0  0  0  0
   -1.7703   -0.2047    0.5111 C   0  0  0  0  0  0  0  0  0  0  0  0
   -1.1526   -1.3795    0.5622 C   0  0  0  0  0  0  0  0  0  0  0  0
    0.0094   -1.3917   -0.4044 C   0  0  0  0  0  0  0  0  0  0  0  0
    0.2713    0.0812   -0.5013 C   0  0  0  0  0  0  0  0  0  0  0  0
    1.4998    0.6993   -0.8931 C   0  0  0  0  0  0  0  0  0  0  0  0
    1.2035    0.6101    0.5925 C   0  0  0  0  0  0  0  0  0  0  0  0
    1.8730   -0.3075    1.3723 O   0  0  0  0  0  0  0  0  0  0  0  0
   -1.8121    2.2712    0.4368 H   0  0  0  0  0  0  0  0  0  0  0  0
   -1.6357    0.5110   -1.4502 H   0  0  0  0  0  0  0  0  0  0  0  0
   -2.6343    0.0028    1.1340 H   0  0  0  0  0  0  0  0  0  0  0  0
   -1.4047   -2.2308    1.1851 H   0  0  0  0  0  0  0  0  0  0  0  0
    0.8462   -1.9848   -0.0331 H   0  0  0  0  0  0  0  0  0  0  0  0
   -0.4003   -1.7934   -1.3497 H   0  0  0  0  0  0  0  0  0  0  0  0
    1.5060    1.7121   -1.2940 H   0  0  0  0  0  0  0  0  0  0  0  0
    2.3363    0.0694   -1.2458 H   0  0  0  0  0  0  0  0  0  0  0  0
    0.8959    1.5338    1.1311 H   0  0  0  0  0  0  0  0  0  0  0  0
    2.5352   -0.8545    0.8668 H   0  0  0  0  0  0  0  0  0  0  0  0
  1  2  1  0
  2  3  1  0
  3  4  2  0
  4  5  1  0
  5  6  1  0
  6  7  1  0
  7  8  1  0
  8  9  1  0
  6  2  1  0
  8  6  1  0
  1 10  1  0
  2 11  1  0
  3 12  1  0
  4 13  1  0
  5 14  1  0
  5 15  1  0
  7 16  1  0
  7 17  1  0
  8 18  1  0
  9 19  1  0
M  END
