
     RDKit          3D

 19 21  0  0  0  0  0  0  0  0999 V2000
    2.9427   -0.0048    0.3353 O   0  0  0  0  0  0  0  0  0  0  0  0
    1.6066    0.3607    0.1773 C   0  0  0  0  0  0  0  0  0  0  0  0
    0.7309   -0.5856   -0.5261 C   0  0  0  0  0  0  0  0  0  0  0  0
   -0.6344   -0.1993   -0.9964 C   0  0  0  0  0  0  0  0  0  0  0  0
   -0.8720    1.2821   -0.7228 C   0  0  0  0  0  0  0  0  0  0  0  0
   -0.8894    1.4134    0.6546 O   0  0  0  0  0  0  0  0  0  0  0  0
   -0.7768    0.1551    1.2155 C   0  0  0  0  0  0  0  0  0  0  0  0
   -1.4832   -0.7354    0.1742 C   0  0  0  0  0  0  0  0  0  0  0  0
    0.6447   -0.3522    1.0213 C   0  0  0  0  0  0  0  0  0  0  0  0
    3.2757   -0.5957   -0.3718 H   0  0  0  0  0  0  0  0  0  0  0  0
    1.4695    1.4291   -0.0578 H   0  0  0  0  0  0  0  0  0  0  0  0
    1.0459   -1.6023   -0.8240 H   0  0  0  0  0  0  0  0  0  0  0  0
   -0.9475   -0.5471   -1.9534 H   0  0  0  0  0  0  0  0  0  0  0  0
   -1.9221    1.4769   -1.0916 H   0  0  0  0  0  0  0  0  0  0  0  0
   -0.1730    1.9336   -1.2410 H   0  0  0  0  0  0  0  0  0  0  0  0
   -1.1643    0.0358    2.2053 H   0  0  0  0  0  0  0  0  0  0  0  0
   -1.2866   -1.7920    0.3428 H   0  0  0  0  0  0  0  0  0  0  0  0
   -2.5196   -0.4491    0.0268 H   0  0  0  0  0  0  0  0  0  0  0  0
    0.9527   -1.2233    1.6318 H   0  0  0  0  0  0  0  0  0  0  0  0
  1  2  1  0
  2  3  1  0
  3  4  1  0
  4  5  1  0
  5  6  1  0
  6  7  1  0
  7  8  1  0
  7  9  1  0
  9  2  1  0
  9  3  1  0
  8  4  1  0
  1 10  1  0
  2 11  1  0
  3 12  1  0
  4 13  1  0
  5 14  1  0
  5 15  1  0
  7 16  1  0
  8 17  1  0
  8 18  1  0
  9 19  1  0
M  END
