
     RDKit          3D

 16 18  0  0  0  0  0  0  0  0999 V2000
   -2.8286   -0.3092   -0.2896 O   0  0  0  0  0  0  0  0  0  0  0  0
   -1.5314   -0.8641   -0.1968 C   0  0  0  0  0  0  0  0  0  0  0  0
   -0.5560   -0.1375   -1.0053 C   0  0  0  0  0  0  0  0  0  0  0  0
    0.4291    0.9383   -0.5113 C   0  0  0  0  0  0  0  0  0  0  0  0
    1.8095    0.5729   -0.5987 C   0  0  0  0  0  0  0  0  0  0  0  0
    0.9903   -0.2049    0.3467 C   0  0  0  0  0  0  0  0  0  0  0  0
    1.5648    0.0122    1.6251 O   0  0  0  0  0  0  0  0  0  0  0  0
   -0.4787   -0.2961    0.5526 C   0  0  0  0  0  0  0  0  0  0  0  0
   -2.8062    0.4613    0.3635 H   0  0  0  0  0  0  0  0  0  0  0  0
   -1.6221   -1.9891   -0.1552 H   0  0  0  0  0  0  0  0  0  0  0  0
   -0.0436   -0.8762   -1.6553 H   0  0  0  0  0  0  0  0  0  0  0  0
    0.0072    1.7762    0.0628 H   0  0  0  0  0  0  0  0  0  0  0  0
    2.5603    1.3312   -0.3594 H   0  0  0  0  0  0  0  0  0  0  0  0
    2.1226    0.0017   -1.5279 H   0  0  0  0  0  0  0  0  0  0  0  0
    1.2301   -0.6407    2.2786 H   0  0  0  0  0  0  0  0  0  0  0  0
   -0.8473    0.6604    1.0702 H   0  0  0  0  0  0  0  0  0  0  0  0
  1  2  1  0
  2  3  1  0
  3  4  1  0
  4  5  1  0
  5  6  1  0
  6  7  1  0
  6  8  1  0
  8  2  1  0
  8  3  1  0
  6  4  1  0
  1  9  1  0
  2 10  1  0
  3 11  1  0
  4 12  1  0
  5 13  1  0
  5 14  1  0
  7 15  1  0
  8 16  1  0
M  END
