
     RDKit          3D

 21 21  0  0  0  0  0  0  0  0999 V2000
    1.3097   -0.0178   -1.3867 O   0  0  0  0  0  0  0  0  0  0  0  0
    1.5022   -0.1908   -0.0038 C   0  0  0  0  0  0  0  0  0  0  0  0
    0.9906    0.9822    0.7825 C   0  0  0  0  0  0  0  0  0  0  0  0
   -0.0619    1.7426    0.0224 C   0  0  0  0  0  0  0  0  0  0  0  0
   -1.2560    1.4643   -0.4960 C   0  0  0  0  0  0  0  0  0  0  0  0
   -2.0381    0.1951   -0.5078 C   0  0  0  0  0  0  0  0  0  0  0  0
   -1.1463   -0.8298   -0.8416 O   0  0  0  0  0  0  0  0  0  0  0  0
   -0.6471   -1.4652    0.2664 C   0  0  0  0  0  0  0  0  0  0  0  0
    0.8382   -1.4832    0.3706 C   0  0  0  0  0  0  0  0  0  0  0  0
    2.1894   -0.1740   -1.8245 H   0  0  0  0  0  0  0  0  0  0  0  0
    2.5850   -0.2988    0.2319 H   0  0  0  0  0  0  0  0  0  0  0  0
    0.6007    0.7001    1.7865 H   0  0  0  0  0  0  0  0  0  0  0  0
    1.8181    1.7046    0.9807 H   0  0  0  0  0  0  0  0  0  0  0  0
    0.1776    2.7811   -0.1699 H   0  0  0  0  0  0  0  0  0  0  0  0
   -1.7167    2.3102   -0.9835 H   0  0  0  0  0  0  0  0  0  0  0  0
   -2.8999    0.2374   -1.1750 H   0  0  0  0  0  0  0  0  0  0  0  0
   -2.4404    0.0613    0.5324 H   0  0  0  0  0  0  0  0  0  0  0  0
   -0.9860   -2.5406    0.2060 H   0  0  0  0  0  0  0  0  0  0  0  0
   -1.1475   -1.0727    1.1848 H   0  0  0  0  0  0  0  0  0  0  0  0
    1.2137   -2.2562   -0.3544 H   0  0  0  0  0  0  0  0  0  0  0  0
    1.1146   -1.8497    1.3790 H   0  0  0  0  0  0  0  0  0  0  0  0
  1  2  1  0
  2  3  1  0
  3  4  1  0
  4  5  2  3
  5  6  1  0
  6  7  1  0
  7  8  1  0
  8  9  1  0
  9  2  1  0
  1 10  1  0
  2 11  1  0
  3 12  1  0
  3 13  1  0
  4 14  1  0
  5 15  1  0
  6 16  1  0
  6 17  1  0
  8 18  1  0
  8 19  1  0
  9 20  1  0
  9 21  1  0
M  END
