
     RDKit          3D

 17 19  0  0  0  0  0  0  0  0999 V2000
    2.3457    0.0955   -0.2721 O   0  0  0  0  0  0  0  0  0  0  0  0
    1.1175    0.0854    0.3590 C   0  0  0  0  0  0  0  0  0  0  0  0
    0.4435    1.4109    0.1126 C   0  0  0  0  0  0  0  0  0  0  0  0
   -1.0624    1.1026    0.1009 C   0  0  0  0  0  0  0  0  0  0  0  0
   -1.3397    0.1985    1.1257 O   0  0  0  0  0  0  0  0  0  0  0  0
   -1.0599   -1.0450    0.6140 C   0  0  0  0  0  0  0  0  0  0  0  0
   -0.8518   -0.8567   -0.8898 C   0  0  0  0  0  0  0  0  0  0  0  0
   -1.2810    0.4180   -1.0862 O   0  0  0  0  0  0  0  0  0  0  0  0
    0.2660   -1.0832    0.0033 C   0  0  0  0  0  0  0  0  0  0  0  0
    2.4200   -0.6346   -0.9184 H   0  0  0  0  0  0  0  0  0  0  0  0
    1.3367    0.0071    1.4651 H   0  0  0  0  0  0  0  0  0  0  0  0
    0.6585    1.8043   -0.9104 H   0  0  0  0  0  0  0  0  0  0  0  0
    0.7151    2.1159    0.8960 H   0  0  0  0  0  0  0  0  0  0  0  0
   -1.6647    2.0161    0.1810 H   0  0  0  0  0  0  0  0  0  0  0  0
   -1.6737   -1.9237    0.8441 H   0  0  0  0  0  0  0  0  0  0  0  0
   -1.1534   -1.6586   -1.5732 H   0  0  0  0  0  0  0  0  0  0  0  0
    0.7835   -2.0525   -0.0515 H   0  0  0  0  0  0  0  0  0  0  0  0
  1  2  1  0
  2  3  1  0
  3  4  1  0
  4  5  1  0
  5  6  1  0
  6  7  1  0
  7  8  1  0
  7  9  1  0
  9  2  1  0
  8  4  1  0
  9  6  1  0
  1 10  1  0
  2 11  1  0
  3 12  1  0
  3 13  1  0
  4 14  1  0
  6 15  1  0
  7 16  1  0
  9 17  1  0
M  END
