
     RDKit          3D

 17 19  0  0  0  0  0  0  0  0999 V2000
    2.0092    0.8632    0.0792 O   0  0  0  0  0  0  0  0  0  0  0  0
    1.2150   -0.2361   -0.1063 C   0  0  0  0  0  0  0  0  0  0  0  0
    0.1834   -0.5217    0.9435 C   0  0  0  0  0  0  0  0  0  0  0  0
   -0.6127   -1.1294   -0.2227 C   0  0  0  0  0  0  0  0  0  0  0  0
   -1.9585   -1.1073   -0.0178 O   0  0  0  0  0  0  0  0  0  0  0  0
   -0.0158    0.0278   -0.9921 C   0  0  0  0  0  0  0  0  0  0  0  0
   -0.6347    1.2161   -0.3435 C   0  0  0  0  0  0  0  0  0  0  0  0
   -1.7261    1.0329    0.4844 O   0  0  0  0  0  0  0  0  0  0  0  0
   -0.5347    0.7802    1.1320 C   0  0  0  0  0  0  0  0  0  0  0  0
    2.9531    0.5717   -0.1337 H   0  0  0  0  0  0  0  0  0  0  0  0
    1.7122   -1.1505   -0.5146 H   0  0  0  0  0  0  0  0  0  0  0  0
    0.4041   -1.1500    1.7669 H   0  0  0  0  0  0  0  0  0  0  0  0
   -0.1370   -2.0797   -0.5010 H   0  0  0  0  0  0  0  0  0  0  0  0
   -2.4543   -0.8288   -0.8233 H   0  0  0  0  0  0  0  0  0  0  0  0
    0.1088   -0.0428   -2.0385 H   0  0  0  0  0  0  0  0  0  0  0  0
   -0.2864    2.2425   -0.5874 H   0  0  0  0  0  0  0  0  0  0  0  0
   -0.2256    1.5117    1.8749 H   0  0  0  0  0  0  0  0  0  0  0  0
  1  2  1  0
  2  3  1  0
  3  4  1  0
  4  5  1  0
  4  6  1  0
  6  7  1  0
  7  8  1  0
  8  9  1  0
  6  2  1  0
  9  7  1  0
  9  3  1  0
  1 10  1  0
  2 11  1  0
  3 12  1  0
  4 13  1  0
  5 14  1  0
  6 15  1  0
  7 16  1  0
  9 17  1  0
M  END
