
     RDKit          3D

 21 22  0  0  0  0  0  0  0  0999 V2000
    2.4414   -1.4457   -0.1025 O   0  0  0  0  0  0  0  0  0  0  0  0
    2.1707   -0.4569    0.8315 C   0  0  0  0  0  0  0  0  0  0  0  0
    1.8825    0.9671    0.2770 C   0  0  0  0  0  0  0  0  0  0  0  0
    0.8606    0.1639    0.9900 C   0  0  0  0  0  0  0  0  0  0  0  0
   -0.3768   -0.3312    0.3133 C   0  0  0  0  0  0  0  0  0  0  0  0
   -0.3492   -0.3466   -1.1362 C   0  0  0  0  0  0  0  0  0  0  0  0
   -1.5844   -0.2067   -1.6064 C   0  0  0  0  0  0  0  0  0  0  0  0
   -2.5373   -0.0848   -0.4398 C   0  0  0  0  0  0  0  0  0  0  0  0
   -1.5919    0.5123    0.6193 C   0  0  0  0  0  0  0  0  0  0  0  0
    2.9223   -1.0203   -0.8758 H   0  0  0  0  0  0  0  0  0  0  0  0
    2.9010   -0.4665    1.6827 H   0  0  0  0  0  0  0  0  0  0  0  0
    2.4021    1.8060    0.7956 H   0  0  0  0  0  0  0  0  0  0  0  0
    1.9225    1.0253   -0.8161 H   0  0  0  0  0  0  0  0  0  0  0  0
    0.6305    0.5458    2.0291 H   0  0  0  0  0  0  0  0  0  0  0  0
   -0.5796   -1.3544    0.6838 H   0  0  0  0  0  0  0  0  0  0  0  0
    0.4813   -0.4493   -1.8473 H   0  0  0  0  0  0  0  0  0  0  0  0
   -1.9488   -0.1735   -2.6287 H   0  0  0  0  0  0  0  0  0  0  0  0
   -2.8249   -1.0717   -0.0610 H   0  0  0  0  0  0  0  0  0  0  0  0
   -3.3823    0.5551   -0.6510 H   0  0  0  0  0  0  0  0  0  0  0  0
   -1.9860    0.3784    1.6269 H   0  0  0  0  0  0  0  0  0  0  0  0
   -1.4540    1.5707    0.3156 H   0  0  0  0  0  0  0  0  0  0  0  0
  1  2  1  0
  2  3  1  0
  3  4  1  0
  4  5  1  0
  5  6  1  0
  6  7  2  0
  7  8  1  0
  8  9  1  0
  4  2  1  0
  9  5  1  0
  1 10  1  0
  2 11  1  0
  3 12  1  0
  3 13  1  0
  4 14  1  0
  5 15  1  0
  6 16  1  0
  7 17  1  0
  8 18  1  0
  8 19  1  0
  9 20  1  0
  9 21  1  0
M  END
