
     RDKit          3D

 18 19  0  0  0  0  0  0  0  0999 V2000
    2.1988    0.3384    0.7450 O   0  0  0  0  0  0  0  0  0  0  0  0
    1.2066    0.2118   -0.2247 C   0  0  0  0  0  0  0  0  0  0  0  0
    0.9111   -1.2404   -0.4510 C   0  0  0  0  0  0  0  0  0  0  0  0
   -0.3939   -1.5066   -0.7912 O   0  0  0  0  0  0  0  0  0  0  0  0
   -1.3179   -0.6487   -0.2377 C   0  0  0  0  0  0  0  0  0  0  0  0
   -1.1346    0.7689   -0.7951 C   0  0  0  0  0  0  0  0  0  0  0  0
   -0.0302    0.9130    0.2549 C   0  0  0  0  0  0  0  0  0  0  0  0
   -0.8564   -0.0703    1.0950 C   0  0  0  0  0  0  0  0  0  0  0  0
    2.1510    1.2886    1.0559 H   0  0  0  0  0  0  0  0  0  0  0  0
    1.5732    0.6553   -1.1753 H   0  0  0  0  0  0  0  0  0  0  0  0
    1.1688   -1.8839    0.4250 H   0  0  0  0  0  0  0  0  0  0  0  0
    1.5803   -1.5971   -1.2746 H   0  0  0  0  0  0  0  0  0  0  0  0
   -2.3411   -1.0131   -0.2703 H   0  0  0  0  0  0  0  0  0  0  0  0
   -1.9898    1.3994   -0.5080 H   0  0  0  0  0  0  0  0  0  0  0  0
   -0.7982    0.7992   -1.8318 H   0  0  0  0  0  0  0  0  0  0  0  0
    0.0825    1.9062    0.6824 H   0  0  0  0  0  0  0  0  0  0  0  0
   -1.7381    0.4205    1.5761 H   0  0  0  0  0  0  0  0  0  0  0  0
   -0.2722   -0.7412    1.7254 H   0  0  0  0  0  0  0  0  0  0  0  0
  1  2  1  0
  2  3  1  0
  3  4  1  0
  4  5  1  0
  5  6  1  0
  6  7  1  0
  7  8  1  0
  7  2  1  0
  8  5  1  0
  1  9  1  0
  2 10  1  0
  3 11  1  0
  3 12  1  0
  5 13  1  0
  6 14  1  0
  6 15  1  0
  7 16  1  0
  8 17  1  0
  8 18  1  0
M  END
