
     RDKit          3D

 16 17  0  0  0  0  0  0  0  0999 V2000
   -0.9721   -2.0813   -0.5090 O   0  0  0  0  0  0  0  0  0  0  0  0
   -0.4803   -1.0878    0.3542 C   0  0  0  0  0  0  0  0  0  0  0  0
    0.9834   -0.8034   -0.0112 C   0  0  0  0  0  0  0  0  0  0  0  0
    0.8689    0.5112   -0.7112 C   0  0  0  0  0  0  0  0  0  0  0  0
    0.6657    1.5615    0.3372 C   0  0  0  0  0  0  0  0  0  0  0  0
   -0.5665    1.3316    0.7993 C   0  0  0  0  0  0  0  0  0  0  0  0
   -1.1123    0.2420   -0.0309 C   0  0  0  0  0  0  0  0  0  0  0  0
   -0.4378    0.4646   -1.2558 O   0  0  0  0  0  0  0  0  0  0  0  0
   -1.1822   -1.6927   -1.3846 H   0  0  0  0  0  0  0  0  0  0  0  0
   -0.6042   -1.3381    1.4058 H   0  0  0  0  0  0  0  0  0  0  0  0
    1.4341   -1.6052   -0.5873 H   0  0  0  0  0  0  0  0  0  0  0  0
    1.5804   -0.6313    0.9272 H   0  0  0  0  0  0  0  0  0  0  0  0
    1.6283    0.7424   -1.4322 H   0  0  0  0  0  0  0  0  0  0  0  0
    1.3945    2.2955    0.5982 H   0  0  0  0  0  0  0  0  0  0  0  0
   -1.0178    1.8787    1.6300 H   0  0  0  0  0  0  0  0  0  0  0  0
   -2.1821    0.2124   -0.1299 H   0  0  0  0  0  0  0  0  0  0  0  0
  1  2  1  0
  2  3  1  0
  3  4  1  0
  4  5  1  0
  5  6  2  0
  6  7  1  0
  7  8  1  0
  7  2  1  0
  8  4  1  0
  1  9  1  0
  2 10  1  0
  3 11  1  0
  3 12  1  0
  4 13  1  0
  5 14  1  0
  6 15  1  0
  7 16  1  0
M  END
