
     RDKit          3D

 17 19  0  0  0  0  0  0  0  0999 V2000
    2.8994    0.6979    0.7382 O   0  0  0  0  0  0  0  0  0  0  0  0
    1.8501    0.4362   -0.1126 C   0  0  0  0  0  0  0  0  0  0  0  0
    1.2424   -0.9052   -0.2128 C   0  0  0  0  0  0  0  0  0  0  0  0
    0.1915   -1.0053   -1.1416 O   0  0  0  0  0  0  0  0  0  0  0  0
   -0.5843   -0.2971   -0.3084 C   0  0  0  0  0  0  0  0  0  0  0  0
   -1.5140    0.7312   -0.8048 C   0  0  0  0  0  0  0  0  0  0  0  0
   -2.3623    0.4138    0.2828 O   0  0  0  0  0  0  0  0  0  0  0  0
   -1.7979   -0.8726    0.2846 C   0  0  0  0  0  0  0  0  0  0  0  0
    0.5084    0.1938    0.5465 C   0  0  0  0  0  0  0  0  0  0  0  0
    2.7875    1.6516    1.0421 H   0  0  0  0  0  0  0  0  0  0  0  0
    1.8420    1.0522   -1.0335 H   0  0  0  0  0  0  0  0  0  0  0  0
    1.5118   -1.7525    0.4077 H   0  0  0  0  0  0  0  0  0  0  0  0
   -1.9585    0.6106   -1.7888 H   0  0  0  0  0  0  0  0  0  0  0  0
   -1.1086    1.7650   -0.5971 H   0  0  0  0  0  0  0  0  0  0  0  0
   -2.3282   -1.5428   -0.4485 H   0  0  0  0  0  0  0  0  0  0  0  0
   -1.6547   -1.3334    1.2561 H   0  0  0  0  0  0  0  0  0  0  0  0
    0.4754    0.1565    1.6477 H   0  0  0  0  0  0  0  0  0  0  0  0
  1  2  1  0
  2  3  1  0
  3  4  1  0
  4  5  1  0
  5  6  1  0
  6  7  1  0
  7  8  1  0
  5  9  1  0
  9  2  1  0
  9  3  1  0
  8  5  1  0
  1 10  1  0
  2 11  1  0
  3 12  1  0
  6 13  1  0
  6 14  1  0
  8 15  1  0
  8 16  1  0
  9 17  1  0
M  END
