
     RDKit          3D

 21 22  0  0  0  0  0  0  0  0999 V2000
   -1.1219   -0.8662    1.5920 O   0  0  0  0  0  0  0  0  0  0  0  0
   -1.2552   -0.5917    0.2605 C   0  0  0  0  0  0  0  0  0  0  0  0
   -0.8671    0.8509   -0.0883 C   0  0  0  0  0  0  0  0  0  0  0  0
    0.3264    1.1518    0.7932 C   0  0  0  0  0  0  0  0  0  0  0  0
    1.4101    0.1592    0.6530 C   0  0  0  0  0  0  0  0  0  0  0  0
    1.1788   -1.0003   -0.2091 C   0  0  0  0  0  0  0  0  0  0  0  0
   -0.2217   -1.2976   -0.6039 C   0  0  0  0  0  0  0  0  0  0  0  0
   -0.4738   -0.6566   -1.8281 O   0  0  0  0  0  0  0  0  0  0  0  0
   -0.4296    0.7007   -1.5139 C   0  0  0  0  0  0  0  0  0  0  0  0
   -1.6505   -0.2007    2.0987 H   0  0  0  0  0  0  0  0  0  0  0  0
   -2.2348   -0.7986   -0.1767 H   0  0  0  0  0  0  0  0  0  0  0  0
   -1.6842    1.5441    0.0718 H   0  0  0  0  0  0  0  0  0  0  0  0
   -0.0558    1.2246    1.8391 H   0  0  0  0  0  0  0  0  0  0  0  0
    0.6418    2.2023    0.5364 H   0  0  0  0  0  0  0  0  0  0  0  0
    1.6783   -0.2076    1.6883 H   0  0  0  0  0  0  0  0  0  0  0  0
    2.3414    0.7160    0.3335 H   0  0  0  0  0  0  0  0  0  0  0  0
    1.6020   -1.9422    0.2503 H   0  0  0  0  0  0  0  0  0  0  0  0
    1.7824   -0.8829   -1.1580 H   0  0  0  0  0  0  0  0  0  0  0  0
   -0.4947   -2.3577   -0.6273 H   0  0  0  0  0  0  0  0  0  0  0  0
   -1.1032    1.2190   -2.2316 H   0  0  0  0  0  0  0  0  0  0  0  0
    0.6313    1.0335   -1.6799 H   0  0  0  0  0  0  0  0  0  0  0  0
  1  2  1  0
  2  3  1  0
  3  4  1  0
  4  5  1  0
  5  6  1  0
  6  7  1  0
  7  8  1  0
  8  9  1  0
  7  2  1  0
  9  3  1  0
  1 10  1  0
  2 11  1  0
  3 12  1  0
  4 13  1  0
  4 14  1  0
  5 15  1  0
  5 16  1  0
  6 17  1  0
  6 18  1  0
  7 19  1  0
  9 20  1  0
  9 21  1  0
M  END
