
     RDKit          3D

 16 17  0  0  0  0  0  0  0  0999 V2000
   -2.2910    1.0488   -0.7997 O   0  0  0  0  0  0  0  0  0  0  0  0
   -1.2767    0.6316    0.0114 C   0  0  0  0  0  0  0  0  0  0  0  0
   -1.3175   -0.8728    0.3669 C   0  0  0  0  0  0  0  0  0  0  0  0
    0.1474   -0.7329    0.4912 C   0  0  0  0  0  0  0  0  0  0  0  0
    1.4266   -0.7701    0.7811 C   0  0  0  0  0  0  0  0  0  0  0  0
    2.1333    0.1591   -0.1381 C   0  0  0  0  0  0  0  0  0  0  0  0
    1.1080    1.0839   -0.4652 O   0  0  0  0  0  0  0  0  0  0  0  0
    0.0125    0.2421   -0.6719 C   0  0  0  0  0  0  0  0  0  0  0  0
   -2.6697    1.8883   -0.4118 H   0  0  0  0  0  0  0  0  0  0  0  0
   -1.0608    1.2152    0.9194 H   0  0  0  0  0  0  0  0  0  0  0  0
   -1.8857   -1.1079    1.2570 H   0  0  0  0  0  0  0  0  0  0  0  0
   -1.5906   -1.4550   -0.5339 H   0  0  0  0  0  0  0  0  0  0  0  0
    1.9505   -1.3563    1.5487 H   0  0  0  0  0  0  0  0  0  0  0  0
    2.9641    0.6928    0.3244 H   0  0  0  0  0  0  0  0  0  0  0  0
    2.4149   -0.4339   -1.0336 H   0  0  0  0  0  0  0  0  0  0  0  0
   -0.0652   -0.2328   -1.6460 H   0  0  0  0  0  0  0  0  0  0  0  0
  1  2  1  0
  2  3  1  0
  3  4  1  0
  4  5  2  0
  5  6  1  0
  6  7  1  0
  7  8  1  0
  8  2  1  0
  8  4  1  0
  1  9  1  0
  2 10  1  0
  3 11  1  0
  3 12  1  0
  5 13  1  0
  6 14  1  0
  6 15  1  0
  8 16  1  0
M  END
