
     RDKit          3D

 23 24  0  0  0  0  0  0  0  0999 V2000
   -1.6020   -1.3289    1.0998 O   0  0  0  0  0  0  0  0  0  0  0  0
   -1.0808   -1.0059   -0.1743 C   0  0  0  0  0  0  0  0  0  0  0  0
   -1.4349    0.4160   -0.4434 C   0  0  0  0  0  0  0  0  0  0  0  0
   -0.7509    1.4071    0.4389 C   0  0  0  0  0  0  0  0  0  0  0  0
    0.6739    1.6072   -0.0119 C   0  0  0  0  0  0  0  0  0  0  0  0
    1.5261    0.3998    0.0965 C   0  0  0  0  0  0  0  0  0  0  0  0
    1.0250   -0.6678    0.9966 C   0  0  0  0  0  0  0  0  0  0  0  0
    0.3591   -1.3246   -0.1798 C   0  0  0  0  0  0  0  0  0  0  0  0
    1.2056   -0.5071   -1.0901 C   0  0  0  0  0  0  0  0  0  0  0  0
   -2.3486   -1.9747    1.0196 H   0  0  0  0  0  0  0  0  0  0  0  0
   -1.5951   -1.6363   -0.9248 H   0  0  0  0  0  0  0  0  0  0  0  0
   -2.5433    0.5199   -0.2481 H   0  0  0  0  0  0  0  0  0  0  0  0
   -1.2907    0.6630   -1.5000 H   0  0  0  0  0  0  0  0  0  0  0  0
   -0.8610    1.1898    1.4994 H   0  0  0  0  0  0  0  0  0  0  0  0
   -1.2664    2.3992    0.2698 H   0  0  0  0  0  0  0  0  0  0  0  0
    1.1213    2.4974    0.4704 H   0  0  0  0  0  0  0  0  0  0  0  0
    0.6118    1.8738   -1.1091 H   0  0  0  0  0  0  0  0  0  0  0  0
    2.5824    0.6397    0.2290 H   0  0  0  0  0  0  0  0  0  0  0  0
    0.3744   -0.4000    1.8265 H   0  0  0  0  0  0  0  0  0  0  0  0
    1.8671   -1.3124    1.3627 H   0  0  0  0  0  0  0  0  0  0  0  0
    0.5540   -2.4016   -0.3192 H   0  0  0  0  0  0  0  0  0  0  0  0
    0.7230   -0.0146   -1.9372 H   0  0  0  0  0  0  0  0  0  0  0  0
    2.1501   -1.0387   -1.3713 H   0  0  0  0  0  0  0  0  0  0  0  0
  1  2  1  0
  2  3  1  0
  3  4  1  0
  4  5  1  0
  5  6  1  0
  6  7  1  0
  7  8  1  0
  8  9  1  0
  8  2  1  0
  9  6  1  0
  1 10  1  0
  2 11  1  0
  3 12  1  0
  3 13  1  0
  4 14  1  0
  4 15  1  0
  5 16  1  0
  5 17  1  0
  6 18  1  0
  7 19  1  0
  7 20  1  0
  8 21  1  0
  9 22  1  0
  9 23  1  0
M  END
