
     RDKit          3D

 19 20  0  0  0  0  0  0  0  0999 V2000
   -1.9144   -1.2389   -0.0851 O   0  0  0  0  0  0  0  0  0  0  0  0
   -0.6737   -0.7330   -0.5318 C   0  0  0  0  0  0  0  0  0  0  0  0
    0.4634   -1.4334    0.1265 C   0  0  0  0  0  0  0  0  0  0  0  0
    1.4015   -0.4951    0.8658 C   0  0  0  0  0  0  0  0  0  0  0  0
    1.7502    0.6224   -0.0589 C   0  0  0  0  0  0  0  0  0  0  0  0
    0.7521    1.2222   -0.6812 C   0  0  0  0  0  0  0  0  0  0  0  0
   -0.6200    0.7559   -0.4258 C   0  0  0  0  0  0  0  0  0  0  0  0
   -1.5331    1.5565    0.2924 C   0  0  0  0  0  0  0  0  0  0  0  0
   -1.6564    1.3913   -1.1617 O   0  0  0  0  0  0  0  0  0  0  0  0
   -1.7869   -2.0561    0.4740 H   0  0  0  0  0  0  0  0  0  0  0  0
   -0.6432   -0.9874   -1.6289 H   0  0  0  0  0  0  0  0  0  0  0  0
    0.0633   -2.2155    0.7950 H   0  0  0  0  0  0  0  0  0  0  0  0
    1.1158   -1.9807   -0.6119 H   0  0  0  0  0  0  0  0  0  0  0  0
    0.9260   -0.1723    1.7876 H   0  0  0  0  0  0  0  0  0  0  0  0
    2.3326   -1.0293    1.0938 H   0  0  0  0  0  0  0  0  0  0  0  0
    2.7656    0.9546   -0.2368 H   0  0  0  0  0  0  0  0  0  0  0  0
    0.9636    2.0474   -1.3688 H   0  0  0  0  0  0  0  0  0  0  0  0
   -1.2930    2.6143    0.5108 H   0  0  0  0  0  0  0  0  0  0  0  0
   -2.4135    1.1771    0.8450 H   0  0  0  0  0  0  0  0  0  0  0  0
  1  2  1  0
  2  3  1  0
  3  4  1  0
  4  5  1  0
  5  6  2  0
  6  7  1  0
  7  8  1  0
  8  9  1  0
  7  2  1  0
  9  7  1  0
  1 10  1  0
  2 11  1  0
  3 12  1  0
  3 13  1  0
  4 14  1  0
  4 15  1  0
  5 16  1  0
  6 17  1  0
  8 18  1  0
  8 19  1  0
M  END
