
     RDKit          3D

 19 20  0  0  0  0  0  0  0  0999 V2000
    2.4484   -0.1357   -0.9723 O   0  0  0  0  0  0  0  0  0  0  0  0
    1.7488   -0.2502    0.2300 C   0  0  0  0  0  0  0  0  0  0  0  0
    0.9856    1.0392    0.3834 C   0  0  0  0  0  0  0  0  0  0  0  0
   -0.2494    0.8997    0.0147 C   0  0  0  0  0  0  0  0  0  0  0  0
   -1.5689    1.4972   -0.1714 C   0  0  0  0  0  0  0  0  0  0  0  0
   -2.4737    0.5019    0.1902 O   0  0  0  0  0  0  0  0  0  0  0  0
   -1.7974   -0.7174    0.2539 C   0  0  0  0  0  0  0  0  0  0  0  0
   -0.4730   -0.5022   -0.4395 C   0  0  0  0  0  0  0  0  0  0  0  0
    0.6621   -1.3076    0.1199 C   0  0  0  0  0  0  0  0  0  0  0  0
    3.3128    0.2978   -0.7784 H   0  0  0  0  0  0  0  0  0  0  0  0
    2.3818   -0.4575    1.0927 H   0  0  0  0  0  0  0  0  0  0  0  0
    1.5187    1.9266    0.7719 H   0  0  0  0  0  0  0  0  0  0  0  0
   -1.7112    1.6378   -1.2834 H   0  0  0  0  0  0  0  0  0  0  0  0
   -1.7288    2.4369    0.3857 H   0  0  0  0  0  0  0  0  0  0  0  0
   -1.5644   -0.8862    1.3298 H   0  0  0  0  0  0  0  0  0  0  0  0
   -2.3858   -1.5452   -0.1889 H   0  0  0  0  0  0  0  0  0  0  0  0
   -0.5408   -0.5604   -1.5280 H   0  0  0  0  0  0  0  0  0  0  0  0
    0.4535   -1.8242    1.0518 H   0  0  0  0  0  0  0  0  0  0  0  0
    0.9818   -2.0506   -0.6403 H   0  0  0  0  0  0  0  0  0  0  0  0
  1  2  1  0
  2  3  1  0
  3  4  2  0
  4  5  1  0
  5  6  1  0
  6  7  1  0
  7  8  1  0
  8  9  1  0
  9  2  1  0
  8  4  1  0
  1 10  1  0
  2 11  1  0
  3 12  1  0
  5 13  1  0
  5 14  1  0
  7 15  1  0
  7 16  1  0
  8 17  1  0
  9 18  1  0
  9 19  1  0
M  END
