
     RDKit          3D

 19 21  0  0  0  0  0  0  0  0999 V2000
    2.5673   -0.2167   -0.2422 O   0  0  0  0  0  0  0  0  0  0  0  0
    1.4201   -0.4107    0.5347 C   0  0  0  0  0  0  0  0  0  0  0  0
    0.4697   -1.4058   -0.0925 C   0  0  0  0  0  0  0  0  0  0  0  0
   -0.6042   -0.6510   -0.7701 C   0  0  0  0  0  0  0  0  0  0  0  0
   -0.2923    0.8264   -0.6251 C   0  0  0  0  0  0  0  0  0  0  0  0
    0.5994    0.8331    0.6236 C   0  0  0  0  0  0  0  0  0  0  0  0
   -1.6930    1.1266   -0.2408 C   0  0  0  0  0  0  0  0  0  0  0  0
   -2.7700    0.4182   -0.6674 O   0  0  0  0  0  0  0  0  0  0  0  0
   -1.8654   -0.3812    0.0000 C   0  0  0  0  0  0  0  0  0  0  0  0
    2.6668    0.7671   -0.3457 H   0  0  0  0  0  0  0  0  0  0  0  0
    1.7714   -0.7456    1.5342 H   0  0  0  0  0  0  0  0  0  0  0  0
    0.0687   -2.1288    0.6210 H   0  0  0  0  0  0  0  0  0  0  0  0
    1.0134   -2.0097   -0.8769 H   0  0  0  0  0  0  0  0  0  0  0  0
   -0.8176   -0.9038   -1.8257 H   0  0  0  0  0  0  0  0  0  0  0  0
    0.1425    1.3157   -1.4873 H   0  0  0  0  0  0  0  0  0  0  0  0
   -0.0260    0.7493    1.5524 H   0  0  0  0  0  0  0  0  0  0  0  0
    1.2159    1.7300    0.6879 H   0  0  0  0  0  0  0  0  0  0  0  0
   -1.8516    1.8117    0.6061 H   0  0  0  0  0  0  0  0  0  0  0  0
   -2.0149   -0.7247    1.0138 H   0  0  0  0  0  0  0  0  0  0  0  0
  1  2  1  0
  2  3  1  0
  3  4  1  0
  4  5  1  0
  5  6  1  0
  5  7  1  0
  7  8  1  0
  8  9  1  0
  6  2  1  0
  9  7  1  0
  9  4  1  0
  1 10  1  0
  2 11  1  0
  3 12  1  0
  3 13  1  0
  4 14  1  0
  5 15  1  0
  6 16  1  0
  6 17  1  0
  7 18  1  0
  9 19  1  0
M  END
