
     RDKit          3D

 19 20  0  0  0  0  0  0  0  0999 V2000
    2.3132   -0.5409    0.3320 O   0  0  0  0  0  0  0  0  0  0  0  0
    1.1884   -0.1512   -0.4212 C   0  0  0  0  0  0  0  0  0  0  0  0
    0.9166    1.3036   -0.3025 C   0  0  0  0  0  0  0  0  0  0  0  0
   -0.2838    1.6508    0.2352 O   0  0  0  0  0  0  0  0  0  0  0  0
   -1.0993    0.6324    0.6226 C   0  0  0  0  0  0  0  0  0  0  0  0
   -0.3948   -0.4630    1.3997 C   0  0  0  0  0  0  0  0  0  0  0  0
    0.0287   -0.9858    0.0178 C   0  0  0  0  0  0  0  0  0  0  0  0
   -1.2903   -0.4210   -0.4799 C   0  0  0  0  0  0  0  0  0  0  0  0
   -1.2804    0.0780   -1.7581 O   0  0  0  0  0  0  0  0  0  0  0  0
    2.5882   -1.4221    0.0061 H   0  0  0  0  0  0  0  0  0  0  0  0
    1.4327   -0.4385   -1.4732 H   0  0  0  0  0  0  0  0  0  0  0  0
    0.9928    1.8024   -1.3110 H   0  0  0  0  0  0  0  0  0  0  0  0
    1.7593    1.7579    0.2879 H   0  0  0  0  0  0  0  0  0  0  0  0
   -2.0353    1.0038    1.0603 H   0  0  0  0  0  0  0  0  0  0  0  0
   -1.1667   -1.1247    1.8720 H   0  0  0  0  0  0  0  0  0  0  0  0
    0.4345   -0.1553    2.0322 H   0  0  0  0  0  0  0  0  0  0  0  0
    0.1536   -2.0588   -0.0434 H   0  0  0  0  0  0  0  0  0  0  0  0
   -2.1408   -1.0549   -0.1867 H   0  0  0  0  0  0  0  0  0  0  0  0
   -2.1165    0.5874   -1.8900 H   0  0  0  0  0  0  0  0  0  0  0  0
  1  2  1  0
  2  3  1  0
  3  4  1  0
  4  5  1  0
  5  6  1  0
  6  7  1  0
  7  8  1  0
  8  9  1  0
  7  2  1  0
  8  5  1  0
  1 10  1  0
  2 11  1  0
  3 12  1  0
  3 13  1  0
  5 14  1  0
  6 15  1  0
  6 16  1  0
  7 17  1  0
  8 18  1  0
  9 19  1  0
M  END
