
     RDKit          3D

 18 19  0  0  0  0  0  0  0  0999 V2000
    2.7679    0.1036   -0.6315 O   0  0  0  0  0  0  0  0  0  0  0  0
    1.6642   -0.6196   -0.2537 C   0  0  0  0  0  0  0  0  0  0  0  0
    1.1378   -0.2760    1.1584 C   0  0  0  0  0  0  0  0  0  0  0  0
   -0.1999   -0.5884    0.5800 C   0  0  0  0  0  0  0  0  0  0  0  0
   -1.3088    0.4100    0.7647 C   0  0  0  0  0  0  0  0  0  0  0  0
   -1.9182    0.3422   -0.6517 C   0  0  0  0  0  0  0  0  0  0  0  0
   -0.6428    0.4012   -1.4623 C   0  0  0  0  0  0  0  0  0  0  0  0
    0.3504   -0.1164   -0.7572 C   0  0  0  0  0  0  0  0  0  0  0  0
    2.5770    1.0579   -0.5643 H   0  0  0  0  0  0  0  0  0  0  0  0
    1.7425   -1.7136   -0.3492 H   0  0  0  0  0  0  0  0  0  0  0  0
    1.3013    0.7647    1.4538 H   0  0  0  0  0  0  0  0  0  0  0  0
    1.4488   -1.0437    1.9047 H   0  0  0  0  0  0  0  0  0  0  0  0
   -0.4969   -1.6433    0.5882 H   0  0  0  0  0  0  0  0  0  0  0  0
   -2.0341    0.1433    1.5307 H   0  0  0  0  0  0  0  0  0  0  0  0
   -0.8819    1.4181    0.8488 H   0  0  0  0  0  0  0  0  0  0  0  0
   -2.5666    1.1960   -0.8513 H   0  0  0  0  0  0  0  0  0  0  0  0
   -2.3681   -0.6452   -0.8418 H   0  0  0  0  0  0  0  0  0  0  0  0
   -0.5728    0.8091   -2.4664 H   0  0  0  0  0  0  0  0  0  0  0  0
  1  2  1  0
  2  3  1  0
  3  4  1  0
  4  5  1  0
  5  6  1  0
  6  7  1  0
  7  8  2  0
  8  2  1  0
  8  4  1  0
  1  9  1  0
  2 10  1  0
  3 11  1  0
  3 12  1  0
  4 13  1  0
  5 14  1  0
  5 15  1  0
  6 16  1  0
  6 17  1  0
  7 18  1  0
M  END
