
     RDKit          3D

 19 20  0  0  0  0  0  0  0  0999 V2000
    1.6591    1.2223   -1.0727 O   0  0  0  0  0  0  0  0  0  0  0  0
    0.9690    0.6774   -0.0198 C   0  0  0  0  0  0  0  0  0  0  0  0
    1.3758   -0.7819    0.2360 C   0  0  0  0  0  0  0  0  0  0  0  0
    0.0260   -1.4639    0.3108 C   0  0  0  0  0  0  0  0  0  0  0  0
   -0.6885   -0.7389   -0.8463 C   0  0  0  0  0  0  0  0  0  0  0  0
   -0.5092    0.6442   -0.1933 C   0  0  0  0  0  0  0  0  0  0  0  0
   -1.0992    1.6513   -0.8376 O   0  0  0  0  0  0  0  0  0  0  0  0
   -1.1102    0.2819    1.1658 C   0  0  0  0  0  0  0  0  0  0  0  0
   -0.6150   -0.9925    1.4381 O   0  0  0  0  0  0  0  0  0  0  0  0
    1.8186    2.1988   -0.8845 H   0  0  0  0  0  0  0  0  0  0  0  0
    1.2040    1.2233    0.9173 H   0  0  0  0  0  0  0  0  0  0  0  0
    1.9591   -0.8878    1.1556 H   0  0  0  0  0  0  0  0  0  0  0  0
    1.9106   -1.1950   -0.6528 H   0  0  0  0  0  0  0  0  0  0  0  0
    0.0450   -2.5291    0.1919 H   0  0  0  0  0  0  0  0  0  0  0  0
   -1.7451   -1.0159   -0.9059 H   0  0  0  0  0  0  0  0  0  0  0  0
   -0.1266   -0.8284   -1.7740 H   0  0  0  0  0  0  0  0  0  0  0  0
   -1.9897    1.3647   -1.1685 H   0  0  0  0  0  0  0  0  0  0  0  0
   -2.2108    0.1541    1.0030 H   0  0  0  0  0  0  0  0  0  0  0  0
   -0.8730    1.0154    1.9370 H   0  0  0  0  0  0  0  0  0  0  0  0
  1  2  1  0
  2  3  1  0
  3  4  1  0
  4  5  1  0
  5  6  1  0
  6  7  1  0
  6  8  1  0
  8  9  1  0
  6  2  1  0
  9  4  1  0
  1 10  1  0
  2 11  1  0
  3 12  1  0
  3 13  1  0
  4 14  1  0
  5 15  1  0
  5 16  1  0
  7 17  1  0
  8 18  1  0
  8 19  1  0
M  END
