
     RDKit          3D

 16 17  0  0  0  0  0  0  0  0999 V2000
    1.7780   -0.7931    0.8956 O   0  0  0  0  0  0  0  0  0  0  0  0
    1.4652   -0.2150   -0.3135 C   0  0  0  0  0  0  0  0  0  0  0  0
    0.2725   -0.7695   -1.0758 C   0  0  0  0  0  0  0  0  0  0  0  0
   -0.5709   -1.5359   -0.2952 O   0  0  0  0  0  0  0  0  0  0  0  0
   -1.4728   -0.7016    0.3218 C   0  0  0  0  0  0  0  0  0  0  0  0
   -0.8824    0.6802    0.3632 C   0  0  0  0  0  0  0  0  0  0  0  0
    0.2879    0.6115   -0.5494 C   0  0  0  0  0  0  0  0  0  0  0  0
    0.3923    1.6881   -1.4596 O   0  0  0  0  0  0  0  0  0  0  0  0
    1.1414   -0.6289    1.6136 H   0  0  0  0  0  0  0  0  0  0  0  0
    2.3802    0.0591   -0.9134 H   0  0  0  0  0  0  0  0  0  0  0  0
    0.3282   -0.8975   -2.1592 H   0  0  0  0  0  0  0  0  0  0  0  0
   -1.7613   -1.0574    1.3430 H   0  0  0  0  0  0  0  0  0  0  0  0
   -2.4146   -0.7263   -0.3001 H   0  0  0  0  0  0  0  0  0  0  0  0
   -0.6420    0.9657    1.3956 H   0  0  0  0  0  0  0  0  0  0  0  0
   -1.6421    1.3816   -0.0305 H   0  0  0  0  0  0  0  0  0  0  0  0
    1.3402    1.9389   -1.4702 H   0  0  0  0  0  0  0  0  0  0  0  0
  1  2  1  0
  2  3  1  0
  3  4  1  0
  4  5  1  0
  5  6  1  0
  6  7  1  0
  7  8  1  0
  7  2  1  0
  7  3  1  0
  1  9  1  0
  2 10  1  0
  3 11  1  0
  5 12  1  0
  5 13  1  0
  6 14  1  0
  6 15  1  0
  8 16  1  0
M  END
