
     RDKit          3D

 20 21  0  0  0  0  0  0  0  0999 V2000
    2.7940    1.5281   -0.1237 O   0  0  0  0  0  0  0  0  0  0  0  0
    1.9032    0.5041   -0.4516 C   0  0  0  0  0  0  0  0  0  0  0  0
    2.0962   -0.7880    0.2402 C   0  0  0  0  0  0  0  0  0  0  0  0
    0.8602    0.0897    0.5040 C   0  0  0  0  0  0  0  0  0  0  0  0
   -0.4188   -0.4315   -0.0431 C   0  0  0  0  0  0  0  0  0  0  0  0
   -1.1956    0.5371   -0.9351 C   0  0  0  0  0  0  0  0  0  0  0  0
   -2.4618   -0.1055   -0.3511 C   0  0  0  0  0  0  0  0  0  0  0  0
   -1.6100   -0.4172    0.8860 C   0  0  0  0  0  0  0  0  0  0  0  0
    2.7806    1.6821    0.8405 H   0  0  0  0  0  0  0  0  0  0  0  0
    1.6426    0.4455   -1.5319 H   0  0  0  0  0  0  0  0  0  0  0  0
    2.8635   -0.8292    1.0325 H   0  0  0  0  0  0  0  0  0  0  0  0
    1.9298   -1.7581   -0.2552 H   0  0  0  0  0  0  0  0  0  0  0  0
    0.8187    0.5020    1.5419 H   0  0  0  0  0  0  0  0  0  0  0  0
   -0.3581   -1.4237   -0.5458 H   0  0  0  0  0  0  0  0  0  0  0  0
   -1.1620    1.5868   -0.5976 H   0  0  0  0  0  0  0  0  0  0  0  0
   -1.0646    0.3537   -2.0073 H   0  0  0  0  0  0  0  0  0  0  0  0
   -3.2907    0.5773   -0.1820 H   0  0  0  0  0  0  0  0  0  0  0  0
   -2.6763   -1.0322   -0.9306 H   0  0  0  0  0  0  0  0  0  0  0  0
   -1.6153    0.4097    1.5969 H   0  0  0  0  0  0  0  0  0  0  0  0
   -1.8357   -1.4307    1.3130 H   0  0  0  0  0  0  0  0  0  0  0  0
  1  2  1  0
  2  3  1  0
  3  4  1  0
  4  5  1  0
  5  6  1  0
  6  7  1  0
  7  8  1  0
  4  2  1  0
  8  5  1  0
  1  9  1  0
  2 10  1  0
  3 11  1  0
  3 12  1  0
  4 13  1  0
  5 14  1  0
  6 15  1  0
  6 16  1  0
  7 17  1  0
  7 18  1  0
  8 19  1  0
  8 20  1  0
M  END
