
     RDKit          3D

 19 21  0  0  0  0  0  0  0  0999 V2000
    2.5789    0.0741    0.4428 O   0  0  0  0  0  0  0  0  0  0  0  0
    1.3543    0.1818   -0.1738 C   0  0  0  0  0  0  0  0  0  0  0  0
    0.3461    1.0052    0.5835 C   0  0  0  0  0  0  0  0  0  0  0  0
   -0.8497    1.3462   -0.2845 C   0  0  0  0  0  0  0  0  0  0  0  0
   -1.5884    0.0171   -0.2919 C   0  0  0  0  0  0  0  0  0  0  0  0
   -0.7360   -1.0911   -0.8625 C   0  0  0  0  0  0  0  0  0  0  0  0
    0.4622   -1.0286    0.0847 C   0  0  0  0  0  0  0  0  0  0  0  0
   -0.1227   -0.2751    1.2458 C   0  0  0  0  0  0  0  0  0  0  0  0
   -1.5158   -0.2979    1.0862 O   0  0  0  0  0  0  0  0  0  0  0  0
    3.1299   -0.5504   -0.0977 H   0  0  0  0  0  0  0  0  0  0  0  0
    1.3799    0.4905   -1.2498 H   0  0  0  0  0  0  0  0  0  0  0  0
    0.7168    1.7821    1.2403 H   0  0  0  0  0  0  0  0  0  0  0  0
   -0.5351    1.6736   -1.2745 H   0  0  0  0  0  0  0  0  0  0  0  0
   -1.5255    2.0669    0.2304 H   0  0  0  0  0  0  0  0  0  0  0  0
   -2.5948    0.0668   -0.6705 H   0  0  0  0  0  0  0  0  0  0  0  0
   -0.4666   -0.9649   -1.9031 H   0  0  0  0  0  0  0  0  0  0  0  0
   -1.2554   -2.0453   -0.6222 H   0  0  0  0  0  0  0  0  0  0  0  0
    0.9652   -1.9645    0.2825 H   0  0  0  0  0  0  0  0  0  0  0  0
    0.2567   -0.4865    2.2343 H   0  0  0  0  0  0  0  0  0  0  0  0
  1  2  1  0
  2  3  1  0
  3  4  1  0
  4  5  1  0
  5  6  1  0
  6  7  1  0
  7  8  1  0
  8  9  1  0
  7  2  1  0
  8  3  1  0
  9  5  1  0
  1 10  1  0
  2 11  1  0
  3 12  1  0
  4 13  1  0
  4 14  1  0
  5 15  1  0
  6 16  1  0
  6 17  1  0
  7 18  1  0
  8 19  1  0
M  END
