
     RDKit          3D

 21 22  0  0  0  0  0  0  0  0999 V2000
    2.1644   -0.1658   -1.4741 O   0  0  0  0  0  0  0  0  0  0  0  0
    1.8447   -0.3457   -0.1625 C   0  0  0  0  0  0  0  0  0  0  0  0
    2.5613    0.5648    0.8317 C   0  0  0  0  0  0  0  0  0  0  0  0
    1.2463    0.4960    1.6240 C   0  0  0  0  0  0  0  0  0  0  0  0
    0.5721    0.4135    0.2458 C   0  0  0  0  0  0  0  0  0  0  0  0
   -0.5112   -0.4169    0.1867 O   0  0  0  0  0  0  0  0  0  0  0  0
   -1.6320    0.1243   -0.4061 C   0  0  0  0  0  0  0  0  0  0  0  0
   -3.0032   -0.2675    0.0677 C   0  0  0  0  0  0  0  0  0  0  0  0
   -2.5000   -0.7188   -1.2632 C   0  0  0  0  0  0  0  0  0  0  0  0
    2.1639   -0.9813   -2.0243 H   0  0  0  0  0  0  0  0  0  0  0  0
    1.8360   -1.3681    0.2421 H   0  0  0  0  0  0  0  0  0  0  0  0
    3.4202    0.1131    1.3323 H   0  0  0  0  0  0  0  0  0  0  0  0
    2.6736    1.5944    0.4507 H   0  0  0  0  0  0  0  0  0  0  0  0
    1.2108   -0.4410    2.1911 H   0  0  0  0  0  0  0  0  0  0  0  0
    1.0809    1.4228    2.1644 H   0  0  0  0  0  0  0  0  0  0  0  0
    0.4926    1.4178   -0.1630 H   0  0  0  0  0  0  0  0  0  0  0  0
   -1.4977    1.1685   -0.7561 H   0  0  0  0  0  0  0  0  0  0  0  0
   -3.8240    0.4953    0.0376 H   0  0  0  0  0  0  0  0  0  0  0  0
   -3.0914   -1.0057    0.9056 H   0  0  0  0  0  0  0  0  0  0  0  0
   -2.2717   -1.8064   -1.3701 H   0  0  0  0  0  0  0  0  0  0  0  0
   -2.9357   -0.2935   -2.1847 H   0  0  0  0  0  0  0  0  0  0  0  0
  1  2  1  0
  2  3  1  0
  3  4  1  0
  4  5  1  0
  5  6  1  0
  6  7  1  0
  7  8  1  0
  8  9  1  0
  5  2  1  0
  9  7  1  0
  1 10  1  0
  2 11  1  0
  3 12  1  0
  3 13  1  0
  4 14  1  0
  4 15  1  0
  5 16  1  0
  7 17  1  0
  8 18  1  0
  8 19  1  0
  9 20  1  0
  9 21  1  0
M  END
