
     RDKit          3D

 18 18  0  0  0  0  0  0  0  0999 V2000
    1.9694   -0.3665    1.1820 O   0  0  0  0  0  0  0  0  0  0  0  0
    1.4583   -0.1750   -0.0970 C   0  0  0  0  0  0  0  0  0  0  0  0
    1.0152    1.2223   -0.2570 C   0  0  0  0  0  0  0  0  0  0  0  0
   -0.2400    1.5204   -0.0348 C   0  0  0  0  0  0  0  0  0  0  0  0
   -1.2769    0.5597    0.3715 C   0  0  0  0  0  0  0  0  0  0  0  0
   -2.4840    0.9591   -0.2086 O   0  0  0  0  0  0  0  0  0  0  0  0
   -0.9566   -0.8613    0.0818 C   0  0  0  0  0  0  0  0  0  0  0  0
    0.3870   -1.1352   -0.4613 C   0  0  0  0  0  0  0  0  0  0  0  0
    2.9167   -0.6398    1.1902 H   0  0  0  0  0  0  0  0  0  0  0  0
    2.3233   -0.3556   -0.8016 H   0  0  0  0  0  0  0  0  0  0  0  0
    1.7436    1.9641   -0.5547 H   0  0  0  0  0  0  0  0  0  0  0  0
   -0.5369    2.5648   -0.1619 H   0  0  0  0  0  0  0  0  0  0  0  0
   -1.4300    0.6915    1.4827 H   0  0  0  0  0  0  0  0  0  0  0  0
   -3.0722    0.1484   -0.3149 H   0  0  0  0  0  0  0  0  0  0  0  0
   -1.1669   -1.4941    0.9939 H   0  0  0  0  0  0  0  0  0  0  0  0
   -1.7157   -1.2296   -0.6705 H   0  0  0  0  0  0  0  0  0  0  0  0
    0.7026   -2.1752   -0.1505 H   0  0  0  0  0  0  0  0  0  0  0  0
    0.3634   -1.1983   -1.5895 H   0  0  0  0  0  0  0  0  0  0  0  0
  1  2  1  0
  2  3  1  0
  3  4  2  0
  4  5  1  0
  5  6  1  0
  5  7  1  0
  7  8  1  0
  8  2  1  0
  1  9  1  0
  2 10  1  0
  3 11  1  0
  4 12  1  0
  5 13  1  0
  6 14  1  0
  7 15  1  0
  7 16  1  0
  8 17  1  0
  8 18  1  0
M  END
