
     RDKit          3D

 14 16  0  0  0  0  0  0  0  0999 V2000
   -0.8870    1.6400   -0.3532 O   0  0  0  0  0  0  0  0  0  0  0  0
   -1.3145    0.4230    0.1479 C   0  0  0  0  0  0  0  0  0  0  0  0
   -0.6346   -0.7350   -0.5471 C   0  0  0  0  0  0  0  0  0  0  0  0
   -0.8102   -1.4287    0.6438 O   0  0  0  0  0  0  0  0  0  0  0  0
   -0.3329   -0.2022    1.0991 C   0  0  0  0  0  0  0  0  0  0  0  0
    0.6249   -0.2287   -0.0058 C   0  0  0  0  0  0  0  0  0  0  0  0
    1.9328   -0.4842   -0.1562 C   0  0  0  0  0  0  0  0  0  0  0  0
    1.3214    0.8423   -0.4790 O   0  0  0  0  0  0  0  0  0  0  0  0
   -1.5729    2.0711   -0.9017 H   0  0  0  0  0  0  0  0  0  0  0  0
   -2.3729    0.3105    0.3711 H   0  0  0  0  0  0  0  0  0  0  0  0
   -0.8659   -1.0718   -1.4706 H   0  0  0  0  0  0  0  0  0  0  0  0
   -0.2045    0.0536    2.0698 H   0  0  0  0  0  0  0  0  0  0  0  0
    2.6976   -0.3436    0.6649 H   0  0  0  0  0  0  0  0  0  0  0  0
    2.4184   -0.8465   -1.0829 H   0  0  0  0  0  0  0  0  0  0  0  0
  1  2  1  0
  2  3  1  0
  3  4  1  0
  4  5  1  0
  5  6  1  0
  6  7  1  0
  7  8  1  0
  5  2  1  0
  8  6  1  0
  6  3  1  0
  1  9  1  0
  2 10  1  0
  3 11  1  0
  5 12  1  0
  7 13  1  0
  7 14  1  0
M  END
