
     RDKit          3D

 17 19  0  0  0  0  0  0  0  0999 V2000
    2.5981    0.5744    0.5193 O   0  0  0  0  0  0  0  0  0  0  0  0
    1.2852    0.2709    0.7881 C   0  0  0  0  0  0  0  0  0  0  0  0
    0.3864    0.4371   -0.4114 C   0  0  0  0  0  0  0  0  0  0  0  0
   -1.0499    0.2120   -0.1150 C   0  0  0  0  0  0  0  0  0  0  0  0
   -1.8941    1.0265    0.5837 C   0  0  0  0  0  0  0  0  0  0  0  0
   -2.0672    0.6728   -0.8709 O   0  0  0  0  0  0  0  0  0  0  0  0
   -0.7570   -1.2158    0.1374 C   0  0  0  0  0  0  0  0  0  0  0  0
    0.7042   -0.9153    0.1366 C   0  0  0  0  0  0  0  0  0  0  0  0
    1.5716   -1.7697   -0.4944 O   0  0  0  0  0  0  0  0  0  0  0  0
    2.6960    1.5770    0.5333 H   0  0  0  0  0  0  0  0  0  0  0  0
    0.8782    0.7187    1.7103 H   0  0  0  0  0  0  0  0  0  0  0  0
    0.7659    0.7571   -1.3726 H   0  0  0  0  0  0  0  0  0  0  0  0
   -2.7598    0.6669    1.1837 H   0  0  0  0  0  0  0  0  0  0  0  0
   -1.7443    2.1264    0.6992 H   0  0  0  0  0  0  0  0  0  0  0  0
   -1.0118   -1.8349   -0.7728 H   0  0  0  0  0  0  0  0  0  0  0  0
   -1.1973   -1.5910    1.0716 H   0  0  0  0  0  0  0  0  0  0  0  0
    1.5957   -1.7131   -1.4648 H   0  0  0  0  0  0  0  0  0  0  0  0
  1  2  1  0
  2  3  1  0
  3  4  1  0
  4  5  1  0
  5  6  1  0
  4  7  1  0
  7  8  1  0
  8  9  1  0
  8  2  1  0
  8  3  1  0
  6  4  1  0
  1 10  1  0
  2 11  1  0
  3 12  1  0
  5 13  1  0
  5 14  1  0
  7 15  1  0
  7 16  1  0
  9 17  1  0
M  END
