
     RDKit          3D

 21 22  0  0  0  0  0  0  0  0999 V2000
   -1.5237   -0.9656    1.2955 O   0  0  0  0  0  0  0  0  0  0  0  0
   -1.3162   -0.6894   -0.0734 C   0  0  0  0  0  0  0  0  0  0  0  0
   -1.4343    0.7725   -0.3056 C   0  0  0  0  0  0  0  0  0  0  0  0
   -0.1706    1.5401   -0.2906 C   0  0  0  0  0  0  0  0  0  0  0  0
    0.9005    1.0384    0.5923 C   0  0  0  0  0  0  0  0  0  0  0  0
    1.9153    0.1490   -0.1246 C   0  0  0  0  0  0  0  0  0  0  0  0
    1.0402   -0.9437    0.4608 C   0  0  0  0  0  0  0  0  0  0  0  0
   -0.0171   -1.2847   -0.5639 C   0  0  0  0  0  0  0  0  0  0  0  0
    0.5655   -0.0140    1.4061 O   0  0  0  0  0  0  0  0  0  0  0  0
   -1.5077   -1.9616    1.3870 H   0  0  0  0  0  0  0  0  0  0  0  0
   -2.1590   -1.1978   -0.5983 H   0  0  0  0  0  0  0  0  0  0  0  0
   -1.9113    0.9243   -1.3188 H   0  0  0  0  0  0  0  0  0  0  0  0
   -2.1809    1.1755    0.4300 H   0  0  0  0  0  0  0  0  0  0  0  0
    0.2449    1.6726   -1.3329 H   0  0  0  0  0  0  0  0  0  0  0  0
   -0.4167    2.5967    0.0264 H   0  0  0  0  0  0  0  0  0  0  0  0
    1.4864    1.8656    1.0912 H   0  0  0  0  0  0  0  0  0  0  0  0
    2.9086    0.1089    0.3657 H   0  0  0  0  0  0  0  0  0  0  0  0
    1.9071    0.2331   -1.2188 H   0  0  0  0  0  0  0  0  0  0  0  0
    1.5744   -1.7911    0.9072 H   0  0  0  0  0  0  0  0  0  0  0  0
    0.2143   -0.8466   -1.5424 H   0  0  0  0  0  0  0  0  0  0  0  0
   -0.1197   -2.3823   -0.5929 H   0  0  0  0  0  0  0  0  0  0  0  0
  1  2  1  0
  2  3  1  0
  3  4  1  0
  4  5  1  0
  5  6  1  0
  6  7  1  0
  7  8  1  0
  7  9  1  0
  8  2  1  0
  9  5  1  0
  1 10  1  0
  2 11  1  0
  3 12  1  0
  3 13  1  0
  4 14  1  0
  4 15  1  0
  5 16  1  0
  6 17  1  0
  6 18  1  0
  7 19  1  0
  8 20  1  0
  8 21  1  0
M  END
