
     RDKit          3D

 21 22  0  0  0  0  0  0  0  0999 V2000
   -1.2582    1.9616    0.6347 O   0  0  0  0  0  0  0  0  0  0  0  0
   -1.0530    0.8012   -0.0923 C   0  0  0  0  0  0  0  0  0  0  0  0
   -1.5581   -0.4245    0.6428 C   0  0  0  0  0  0  0  0  0  0  0  0
   -1.2237   -1.5901   -0.2990 C   0  0  0  0  0  0  0  0  0  0  0  0
    0.1324   -1.7326   -0.2899 O   0  0  0  0  0  0  0  0  0  0  0  0
    0.8645   -0.6913   -0.7440 C   0  0  0  0  0  0  0  0  0  0  0  0
    2.0505   -0.4165    0.1910 C   0  0  0  0  0  0  0  0  0  0  0  0
    1.3778    0.8735    0.6327 C   0  0  0  0  0  0  0  0  0  0  0  0
    0.3774    0.6703   -0.4707 C   0  0  0  0  0  0  0  0  0  0  0  0
   -1.0230    2.7173    0.0221 H   0  0  0  0  0  0  0  0  0  0  0  0
   -1.6502    0.8407   -1.0499 H   0  0  0  0  0  0  0  0  0  0  0  0
   -2.6599   -0.3690    0.6939 H   0  0  0  0  0  0  0  0  0  0  0  0
   -1.0787   -0.5580    1.6283 H   0  0  0  0  0  0  0  0  0  0  0  0
   -1.6350   -1.2727   -1.2984 H   0  0  0  0  0  0  0  0  0  0  0  0
   -1.7052   -2.4855    0.0950 H   0  0  0  0  0  0  0  0  0  0  0  0
    1.2706   -0.8787   -1.7657 H   0  0  0  0  0  0  0  0  0  0  0  0
    2.1637   -1.1736    0.9987 H   0  0  0  0  0  0  0  0  0  0  0  0
    3.0058   -0.2571   -0.3152 H   0  0  0  0  0  0  0  0  0  0  0  0
    2.0452    1.7585    0.4761 H   0  0  0  0  0  0  0  0  0  0  0  0
    0.9511    0.8636    1.6434 H   0  0  0  0  0  0  0  0  0  0  0  0
    0.6059    1.3629   -1.3336 H   0  0  0  0  0  0  0  0  0  0  0  0
  1  2  1  0
  2  3  1  0
  3  4  1  0
  4  5  1  0
  5  6  1  0
  6  7  1  0
  7  8  1  0
  8  9  1  0
  9  2  1  0
  9  6  1  0
  1 10  1  0
  2 11  1  0
  3 12  1  0
  3 13  1  0
  4 14  1  0
  4 15  1  0
  6 16  1  0
  7 17  1  0
  7 18  1  0
  8 19  1  0
  8 20  1  0
  9 21  1  0
M  END
