
     RDKit          3D

 18 19  0  0  0  0  0  0  0  0999 V2000
    1.5508    0.0068    1.4909 O   0  0  0  0  0  0  0  0  0  0  0  0
    0.7541   -0.7175    0.6169 C   0  0  0  0  0  0  0  0  0  0  0  0
    1.0938   -0.3523   -0.8434 C   0  0  0  0  0  0  0  0  0  0  0  0
   -0.0586    0.5279   -1.1589 C   0  0  0  0  0  0  0  0  0  0  0  0
   -0.2911    1.3049    0.1457 C   0  0  0  0  0  0  0  0  0  0  0  0
   -0.6342   -0.0994    0.6705 C   0  0  0  0  0  0  0  0  0  0  0  0
   -1.3584   -0.1997    1.7722 O   0  0  0  0  0  0  0  0  0  0  0  0
   -1.2421   -0.3262   -0.6833 C   0  0  0  0  0  0  0  0  0  0  0  0
    2.4310    0.2370    1.1158 H   0  0  0  0  0  0  0  0  0  0  0  0
    0.7527   -1.7901    0.7797 H   0  0  0  0  0  0  0  0  0  0  0  0
    2.0784    0.0876   -0.9368 H   0  0  0  0  0  0  0  0  0  0  0  0
    0.9593   -1.3089   -1.4136 H   0  0  0  0  0  0  0  0  0  0  0  0
   -0.1518    1.0459   -2.0705 H   0  0  0  0  0  0  0  0  0  0  0  0
   -1.1517    1.9776    0.1228 H   0  0  0  0  0  0  0  0  0  0  0  0
    0.6537    1.6749    0.5357 H   0  0  0  0  0  0  0  0  0  0  0  0
   -1.9826   -0.9823    1.7160 H   0  0  0  0  0  0  0  0  0  0  0  0
   -2.1748    0.2545   -0.7817 H   0  0  0  0  0  0  0  0  0  0  0  0
   -1.2287   -1.3407   -1.0780 H   0  0  0  0  0  0  0  0  0  0  0  0
  1  2  1  0
  2  3  1  0
  3  4  1  0
  4  5  1  0
  5  6  1  0
  6  7  1  0
  6  8  1  0
  6  2  1  0
  8  4  1  0
  1  9  1  0
  2 10  1  0
  3 11  1  0
  3 12  1  0
  4 13  1  0
  5 14  1  0
  5 15  1  0
  7 16  1  0
  8 17  1  0
  8 18  1  0
M  END
