
     RDKit          3D

 18 19  0  0  0  0  0  0  0  0999 V2000
    2.0498   -0.2618    0.9595 O   0  0  0  0  0  0  0  0  0  0  0  0
    1.7283   -0.3898   -0.3697 C   0  0  0  0  0  0  0  0  0  0  0  0
    0.7174    0.4188   -1.0514 C   0  0  0  0  0  0  0  0  0  0  0  0
   -0.0400    1.4898   -0.4017 C   0  0  0  0  0  0  0  0  0  0  0  0
   -1.1315    1.2632    0.3182 C   0  0  0  0  0  0  0  0  0  0  0  0
   -1.6875   -0.0980    0.5326 C   0  0  0  0  0  0  0  0  0  0  0  0
   -0.5625   -1.1153    0.4726 C   0  0  0  0  0  0  0  0  0  0  0  0
    0.3190   -0.9498   -0.7178 C   0  0  0  0  0  0  0  0  0  0  0  0
    1.8660    0.6142    1.3537 H   0  0  0  0  0  0  0  0  0  0  0  0
    2.5491   -0.8441   -0.9829 H   0  0  0  0  0  0  0  0  0  0  0  0
    0.9015    0.6083   -2.1501 H   0  0  0  0  0  0  0  0  0  0  0  0
    0.2859    2.5126   -0.4999 H   0  0  0  0  0  0  0  0  0  0  0  0
   -1.6677    2.1029    0.7881 H   0  0  0  0  0  0  0  0  0  0  0  0
   -2.4700   -0.3178   -0.2233 H   0  0  0  0  0  0  0  0  0  0  0  0
   -2.0839   -0.1334    1.5662 H   0  0  0  0  0  0  0  0  0  0  0  0
   -1.0481   -2.1164    0.4532 H   0  0  0  0  0  0  0  0  0  0  0  0
   -0.0111   -1.0289    1.4318 H   0  0  0  0  0  0  0  0  0  0  0  0
    0.2853   -1.7545   -1.4791 H   0  0  0  0  0  0  0  0  0  0  0  0
  1  2  1  0
  2  3  1  0
  3  4  1  0
  4  5  2  0
  5  6  1  0
  6  7  1  0
  7  8  1  0
  8  2  1  0
  8  3  1  0
  1  9  1  0
  2 10  1  0
  3 11  1  0
  4 12  1  0
  5 13  1  0
  6 14  1  0
  6 15  1  0
  7 16  1  0
  7 17  1  0
  8 18  1  0
M  END
