
     RDKit          3D

 16 18  0  0  0  0  0  0  0  0999 V2000
   -2.7503   -0.2658    0.3746 O   0  0  0  0  0  0  0  0  0  0  0  0
   -1.4104   -0.4077    0.1073 C   0  0  0  0  0  0  0  0  0  0  0  0
   -0.7762    0.8473   -0.4861 C   0  0  0  0  0  0  0  0  0  0  0  0
    0.2786    0.6049   -1.3092 O   0  0  0  0  0  0  0  0  0  0  0  0
    1.3887    0.2844   -0.6062 C   0  0  0  0  0  0  0  0  0  0  0  0
    1.5876   -0.9524    0.1504 C   0  0  0  0  0  0  0  0  0  0  0  0
    1.0141    0.2048    0.8357 C   0  0  0  0  0  0  0  0  0  0  0  0
   -0.4647    0.3676    0.8891 C   0  0  0  0  0  0  0  0  0  0  0  0
   -2.9844   -0.6542    1.2326 H   0  0  0  0  0  0  0  0  0  0  0  0
   -1.1479   -1.3863   -0.3601 H   0  0  0  0  0  0  0  0  0  0  0  0
   -1.3599    1.7792   -0.5181 H   0  0  0  0  0  0  0  0  0  0  0  0
    2.3136    0.8535   -0.9115 H   0  0  0  0  0  0  0  0  0  0  0  0
    2.6276   -1.2070    0.4450 H   0  0  0  0  0  0  0  0  0  0  0  0
    0.9464   -1.8476    0.0506 H   0  0  0  0  0  0  0  0  0  0  0  0
    1.6031    0.8825    1.4898 H   0  0  0  0  0  0  0  0  0  0  0  0
   -0.8658    0.8969    1.7864 H   0  0  0  0  0  0  0  0  0  0  0  0
  1  2  1  0
  2  3  1  0
  3  4  1  0
  4  5  1  0
  5  6  1  0
  6  7  1  0
  7  8  1  0
  8  2  1  0
  8  3  1  0
  7  5  1  0
  1  9  1  0
  2 10  1  0
  3 11  1  0
  5 12  1  0
  6 13  1  0
  6 14  1  0
  7 15  1  0
  8 16  1  0
M  END
