
     RDKit          3D

 18 19  0  0  0  0  0  0  0  0999 V2000
   -1.5960   -1.4948   -0.9714 O   0  0  0  0  0  0  0  0  0  0  0  0
   -0.5807   -0.5788   -0.8573 C   0  0  0  0  0  0  0  0  0  0  0  0
    0.5081   -0.9061    0.1387 C   0  0  0  0  0  0  0  0  0  0  0  0
    1.6258    0.0749   -0.0125 C   0  0  0  0  0  0  0  0  0  0  0  0
    1.2602    1.3780    0.0004 O   0  0  0  0  0  0  0  0  0  0  0  0
   -0.0531    1.6757   -0.1252 C   0  0  0  0  0  0  0  0  0  0  0  0
   -0.9758    0.5299    0.1294 C   0  0  0  0  0  0  0  0  0  0  0  0
   -0.4188   -0.3563    1.2239 C   0  0  0  0  0  0  0  0  0  0  0  0
   -1.2798   -2.4092   -1.0969 H   0  0  0  0  0  0  0  0  0  0  0  0
   -0.2300   -0.1393   -1.8151 H   0  0  0  0  0  0  0  0  0  0  0  0
    0.8062   -1.9347    0.2386 H   0  0  0  0  0  0  0  0  0  0  0  0
    2.3235   -0.0957    0.8608 H   0  0  0  0  0  0  0  0  0  0  0  0
    2.1931   -0.2104   -0.9378 H   0  0  0  0  0  0  0  0  0  0  0  0
   -0.3813    2.5193    0.5490 H   0  0  0  0  0  0  0  0  0  0  0  0
   -0.2180    2.0897   -1.1628 H   0  0  0  0  0  0  0  0  0  0  0  0
   -2.0294    0.7647    0.1706 H   0  0  0  0  0  0  0  0  0  0  0  0
    0.1544    0.1725    2.0093 H   0  0  0  0  0  0  0  0  0  0  0  0
   -1.1085   -1.0794    1.6583 H   0  0  0  0  0  0  0  0  0  0  0  0
  1  2  1  0
  2  3  1  0
  3  4  1  0
  4  5  1  0
  5  6  1  0
  6  7  1  0
  7  8  1  0
  7  2  1  0
  8  3  1  0
  1  9  1  0
  2 10  1  0
  3 11  1  0
  4 12  1  0
  4 13  1  0
  6 14  1  0
  6 15  1  0
  7 16  1  0
  8 17  1  0
  8 18  1  0
M  END
