
     RDKit          3D

 16 18  0  0  0  0  0  0  0  0999 V2000
    1.5739    1.5984    0.7282 O   0  0  0  0  0  0  0  0  0  0  0  0
    0.7163    0.8316   -0.0024 C   0  0  0  0  0  0  0  0  0  0  0  0
   -0.5754    0.5027    0.6441 C   0  0  0  0  0  0  0  0  0  0  0  0
   -1.8832    0.2657    0.2046 C   0  0  0  0  0  0  0  0  0  0  0  0
   -0.9591   -0.5099   -0.5158 C   0  0  0  0  0  0  0  0  0  0  0  0
    0.0616   -1.5013   -0.1760 C   0  0  0  0  0  0  0  0  0  0  0  0
    0.8975   -1.4895    0.8900 O   0  0  0  0  0  0  0  0  0  0  0  0
    1.3006   -0.5943   -0.0635 C   0  0  0  0  0  0  0  0  0  0  0  0
    2.1780    2.1641    0.1934 H   0  0  0  0  0  0  0  0  0  0  0  0
    0.5214    1.2209   -1.0166 H   0  0  0  0  0  0  0  0  0  0  0  0
   -0.3144   -0.0041    1.6330 H   0  0  0  0  0  0  0  0  0  0  0  0
   -2.6165   -0.2805    0.8685 H   0  0  0  0  0  0  0  0  0  0  0  0
   -2.4437    1.0976   -0.3019 H   0  0  0  0  0  0  0  0  0  0  0  0
   -0.7552   -0.1281   -1.5678 H   0  0  0  0  0  0  0  0  0  0  0  0
    0.1368   -2.3844   -0.8363 H   0  0  0  0  0  0  0  0  0  0  0  0
    2.1615   -0.7890   -0.6817 H   0  0  0  0  0  0  0  0  0  0  0  0
  1  2  1  0
  2  3  1  0
  3  4  1  0
  4  5  1  0
  5  6  1  0
  6  7  1  0
  7  8  1  0
  8  2  1  0
  5  3  1  0
  8  6  1  0
  1  9  1  0
  2 10  1  0
  3 11  1  0
  4 12  1  0
  4 13  1  0
  5 14  1  0
  6 15  1  0
  8 16  1  0
M  END
