
     RDKit          3D

 17 19  0  0  0  0  0  0  0  0999 V2000
    1.9820    0.1653    1.3330 O   0  0  0  0  0  0  0  0  0  0  0  0
    1.4462   -0.2441    0.1394 C   0  0  0  0  0  0  0  0  0  0  0  0
    0.2818   -1.2381    0.2603 C   0  0  0  0  0  0  0  0  0  0  0  0
   -0.5050   -0.8838    1.3212 O   0  0  0  0  0  0  0  0  0  0  0  0
   -1.4149    0.0726    0.9520 C   0  0  0  0  0  0  0  0  0  0  0  0
   -0.9489    0.6088   -0.4055 C   0  0  0  0  0  0  0  0  0  0  0  0
   -1.7676    1.3786   -1.1617 O   0  0  0  0  0  0  0  0  0  0  0  0
    0.5169    0.6853   -0.5562 C   0  0  0  0  0  0  0  0  0  0  0  0
   -0.2943   -0.5703   -0.9450 C   0  0  0  0  0  0  0  0  0  0  0  0
    2.8502   -0.2964    1.4632 H   0  0  0  0  0  0  0  0  0  0  0  0
    2.1973   -0.6540   -0.5949 H   0  0  0  0  0  0  0  0  0  0  0  0
    0.5662   -2.2798    0.1433 H   0  0  0  0  0  0  0  0  0  0  0  0
   -1.5574    0.8787    1.6773 H   0  0  0  0  0  0  0  0  0  0  0  0
   -2.4194   -0.3950    0.7300 H   0  0  0  0  0  0  0  0  0  0  0  0
   -1.6854    2.3504   -1.0531 H   0  0  0  0  0  0  0  0  0  0  0  0
    0.9231    1.3059   -1.3544 H   0  0  0  0  0  0  0  0  0  0  0  0
   -0.1709   -0.8840   -1.9489 H   0  0  0  0  0  0  0  0  0  0  0  0
  1  2  1  0
  2  3  1  0
  3  4  1  0
  4  5  1  0
  5  6  1  0
  6  7  1  0
  6  8  1  0
  8  9  1  0
  8  2  1  0
  9  3  1  0
  9  6  1  0
  1 10  1  0
  2 11  1  0
  3 12  1  0
  5 13  1  0
  5 14  1  0
  7 15  1  0
  8 16  1  0
  9 17  1  0
M  END
