
     RDKit          3D

 19 21  0  0  0  0  0  0  0  0999 V2000
    1.6758   -1.5963    0.1917 O   0  0  0  0  0  0  0  0  0  0  0  0
    1.4800   -0.2383    0.1947 C   0  0  0  0  0  0  0  0  0  0  0  0
    1.1579    0.3928   -1.1449 C   0  0  0  0  0  0  0  0  0  0  0  0
   -0.1626    0.8524   -0.6042 C   0  0  0  0  0  0  0  0  0  0  0  0
   -0.1396    1.6480    0.6507 C   0  0  0  0  0  0  0  0  0  0  0  0
    0.1152    0.1913    0.6848 C   0  0  0  0  0  0  0  0  0  0  0  0
   -0.9842   -0.8100    0.8318 C   0  0  0  0  0  0  0  0  0  0  0  0
   -1.9383   -0.4638   -0.2581 C   0  0  0  0  0  0  0  0  0  0  0  0
   -1.3440    0.4191   -1.1184 O   0  0  0  0  0  0  0  0  0  0  0  0
    2.4829   -1.7830   -0.3633 H   0  0  0  0  0  0  0  0  0  0  0  0
    2.3296    0.3283    0.6575 H   0  0  0  0  0  0  0  0  0  0  0  0
    1.7922    1.2484   -1.4334 H   0  0  0  0  0  0  0  0  0  0  0  0
    1.1005   -0.4100   -1.9111 H   0  0  0  0  0  0  0  0  0  0  0  0
   -1.0648    2.0213    1.1018 H   0  0  0  0  0  0  0  0  0  0  0  0
    0.7611    2.2882    0.7751 H   0  0  0  0  0  0  0  0  0  0  0  0
   -1.5134   -0.7782    1.7917 H   0  0  0  0  0  0  0  0  0  0  0  0
   -0.6040   -1.8244    0.6850 H   0  0  0  0  0  0  0  0  0  0  0  0
   -2.2087   -1.3793   -0.8635 H   0  0  0  0  0  0  0  0  0  0  0  0
   -2.9353   -0.1067    0.1323 H   0  0  0  0  0  0  0  0  0  0  0  0
  1  2  1  0
  2  3  1  0
  3  4  1  0
  4  5  1  0
  5  6  1  0
  6  7  1  0
  7  8  1  0
  8  9  1  0
  6  2  1  0
  6  4  1  0
  9  4  1  0
  1 10  1  0
  2 11  1  0
  3 12  1  0
  3 13  1  0
  5 14  1  0
  5 15  1  0
  7 16  1  0
  7 17  1  0
  8 18  1  0
  8 19  1  0
M  END
