
     RDKit          3D

 21 22  0  0  0  0  0  0  0  0999 V2000
   -0.4911    1.6274    1.3058 O   0  0  0  0  0  0  0  0  0  0  0  0
   -0.9351    0.8791    0.2514 C   0  0  0  0  0  0  0  0  0  0  0  0
   -2.0068   -0.0881    0.6017 C   0  0  0  0  0  0  0  0  0  0  0  0
   -1.8950   -1.1812   -0.1394 C   0  0  0  0  0  0  0  0  0  0  0  0
   -0.7077   -1.0229   -1.0664 C   0  0  0  0  0  0  0  0  0  0  0  0
    0.1240   -0.0700   -0.2994 C   0  0  0  0  0  0  0  0  0  0  0  0
    1.3044    0.5557   -0.9074 C   0  0  0  0  0  0  0  0  0  0  0  0
    2.0869    0.2486    0.3735 C   0  0  0  0  0  0  0  0  0  0  0  0
    0.9693   -0.7291    0.7412 C   0  0  0  0  0  0  0  0  0  0  0  0
   -0.6252    2.5998    1.0742 H   0  0  0  0  0  0  0  0  0  0  0  0
   -1.2791    1.4984   -0.6125 H   0  0  0  0  0  0  0  0  0  0  0  0
   -2.7628    0.0795    1.3502 H   0  0  0  0  0  0  0  0  0  0  0  0
   -2.5078   -2.0821   -0.1442 H   0  0  0  0  0  0  0  0  0  0  0  0
   -0.2267   -1.9808   -1.2774 H   0  0  0  0  0  0  0  0  0  0  0  0
   -1.1505   -0.5540   -1.9914 H   0  0  0  0  0  0  0  0  0  0  0  0
    1.2953    1.6668   -1.0377 H   0  0  0  0  0  0  0  0  0  0  0  0
    1.7598    0.0961   -1.7955 H   0  0  0  0  0  0  0  0  0  0  0  0
    2.1572    1.0931    1.0756 H   0  0  0  0  0  0  0  0  0  0  0  0
    3.0591   -0.2269    0.2081 H   0  0  0  0  0  0  0  0  0  0  0  0
    1.2423   -1.7980    0.5264 H   0  0  0  0  0  0  0  0  0  0  0  0
    0.5897   -0.6115    1.7631 H   0  0  0  0  0  0  0  0  0  0  0  0
  1  2  1  0
  2  3  1  0
  3  4  2  0
  4  5  1  0
  5  6  1  0
  6  7  1  0
  7  8  1  0
  8  9  1  0
  6  2  1  0
  9  6  1  0
  1 10  1  0
  2 11  1  0
  3 12  1  0
  4 13  1  0
  5 14  1  0
  5 15  1  0
  7 16  1  0
  7 17  1  0
  8 18  1  0
  8 19  1  0
  9 20  1  0
  9 21  1  0
M  END
