
     RDKit          3D

 19 20  0  0  0  0  0  0  0  0999 V2000
    2.1608    1.0522    0.1954 O   0  0  0  0  0  0  0  0  0  0  0  0
    1.4643    0.0794   -0.5164 C   0  0  0  0  0  0  0  0  0  0  0  0
    1.3402   -1.1797    0.2864 C   0  0  0  0  0  0  0  0  0  0  0  0
    0.0693   -1.5105    0.4368 C   0  0  0  0  0  0  0  0  0  0  0  0
   -0.8142   -0.5269   -0.2383 C   0  0  0  0  0  0  0  0  0  0  0  0
   -1.6955   -1.0591   -1.1609 O   0  0  0  0  0  0  0  0  0  0  0  0
   -1.3985    0.4933    0.7126 C   0  0  0  0  0  0  0  0  0  0  0  0
   -0.5554    1.5424    0.0172 C   0  0  0  0  0  0  0  0  0  0  0  0
    0.0732    0.4956   -0.8692 C   0  0  0  0  0  0  0  0  0  0  0  0
    2.5753    0.6392    1.0027 H   0  0  0  0  0  0  0  0  0  0  0  0
    2.0068   -0.1747   -1.4508 H   0  0  0  0  0  0  0  0  0  0  0  0
    2.1677   -1.7266    0.6782 H   0  0  0  0  0  0  0  0  0  0  0  0
   -0.2909   -2.3683    0.9703 H   0  0  0  0  0  0  0  0  0  0  0  0
   -2.2724   -1.7150   -0.7132 H   0  0  0  0  0  0  0  0  0  0  0  0
   -1.1448    0.3296    1.7795 H   0  0  0  0  0  0  0  0  0  0  0  0
   -2.4857    0.5883    0.5843 H   0  0  0  0  0  0  0  0  0  0  0  0
   -1.2195    2.2627   -0.5050 H   0  0  0  0  0  0  0  0  0  0  0  0
    0.1118    2.0468    0.7159 H   0  0  0  0  0  0  0  0  0  0  0  0
   -0.0924    0.7315   -1.9256 H   0  0  0  0  0  0  0  0  0  0  0  0
  1  2  1  0
  2  3  1  0
  3  4  2  0
  4  5  1  0
  5  6  1  0
  5  7  1  0
  7  8  1  0
  8  9  1  0
  9  2  1  0
  9  5  1  0
  1 10  1  0
  2 11  1  0
  3 12  1  0
  4 13  1  0
  6 14  1  0
  7 15  1  0
  7 16  1  0
  8 17  1  0
  8 18  1  0
  9 19  1  0
M  END
