
     RDKit          3D

 19 20  0  0  0  0  0  0  0  0999 V2000
    2.3385   -0.7586    0.9181 O   0  0  0  0  0  0  0  0  0  0  0  0
    1.6135   -0.2193   -0.1100 C   0  0  0  0  0  0  0  0  0  0  0  0
    1.2051    1.2335    0.1587 C   0  0  0  0  0  0  0  0  0  0  0  0
    0.1133    1.4726   -0.6583 O   0  0  0  0  0  0  0  0  0  0  0  0
   -0.4574    0.2832   -1.0026 C   0  0  0  0  0  0  0  0  0  0  0  0
   -1.8841    0.1235   -0.4987 C   0  0  0  0  0  0  0  0  0  0  0  0
   -1.6454   -0.2058    0.9541 C   0  0  0  0  0  0  0  0  0  0  0  0
   -0.3488   -0.6372    1.0854 O   0  0  0  0  0  0  0  0  0  0  0  0
    0.2083   -0.8038   -0.1484 C   0  0  0  0  0  0  0  0  0  0  0  0
    2.9845   -1.4020    0.5379 H   0  0  0  0  0  0  0  0  0  0  0  0
    2.0668   -0.2953   -1.1027 H   0  0  0  0  0  0  0  0  0  0  0  0
    2.0365    1.9208    0.0077 H   0  0  0  0  0  0  0  0  0  0  0  0
    0.8507    1.2201    1.2290 H   0  0  0  0  0  0  0  0  0  0  0  0
   -0.3387   -0.0047   -2.0520 H   0  0  0  0  0  0  0  0  0  0  0  0
   -2.5053    0.9947   -0.6644 H   0  0  0  0  0  0  0  0  0  0  0  0
   -2.2678   -0.8153   -0.9753 H   0  0  0  0  0  0  0  0  0  0  0  0
   -2.3235   -0.9956    1.2957 H   0  0  0  0  0  0  0  0  0  0  0  0
   -1.7977    0.6729    1.6153 H   0  0  0  0  0  0  0  0  0  0  0  0
    0.1515   -1.7836   -0.5897 H   0  0  0  0  0  0  0  0  0  0  0  0
  1  2  1  0
  2  3  1  0
  3  4  1  0
  4  5  1  0
  5  6  1  0
  6  7  1  0
  7  8  1  0
  8  9  1  0
  9  2  1  0
  9  5  1  0
  1 10  1  0
  2 11  1  0
  3 12  1  0
  3 13  1  0
  5 14  1  0
  6 15  1  0
  6 16  1  0
  7 17  1  0
  7 18  1  0
  9 19  1  0
M  END
