
     RDKit          3D

 17 19  0  0  0  0  0  0  0  0999 V2000
   -0.0542    1.9772   -0.7838 O   0  0  0  0  0  0  0  0  0  0  0  0
   -0.0500    1.0284    0.2210 C   0  0  0  0  0  0  0  0  0  0  0  0
    1.3651    0.6744    0.5468 C   0  0  0  0  0  0  0  0  0  0  0  0
    2.2825    0.4077   -0.4513 O   0  0  0  0  0  0  0  0  0  0  0  0
    1.6120   -0.6929    0.0564 C   0  0  0  0  0  0  0  0  0  0  0  0
    0.3991   -1.1667   -0.7026 C   0  0  0  0  0  0  0  0  0  0  0  0
   -0.6904   -0.2372   -0.2717 C   0  0  0  0  0  0  0  0  0  0  0  0
   -1.9204   -0.6833    0.3249 C   0  0  0  0  0  0  0  0  0  0  0  0
   -1.8518   -0.1132   -1.0095 O   0  0  0  0  0  0  0  0  0  0  0  0
   -0.4983    2.8240   -0.4927 H   0  0  0  0  0  0  0  0  0  0  0  0
   -0.5320    1.4455    1.1253 H   0  0  0  0  0  0  0  0  0  0  0  0
    1.7833    1.0326    1.5075 H   0  0  0  0  0  0  0  0  0  0  0  0
    2.1089   -1.3796    0.7631 H   0  0  0  0  0  0  0  0  0  0  0  0
    0.1246   -2.1957   -0.3557 H   0  0  0  0  0  0  0  0  0  0  0  0
    0.6179   -1.1345   -1.7869 H   0  0  0  0  0  0  0  0  0  0  0  0
   -2.4320   -0.0437    1.0792 H   0  0  0  0  0  0  0  0  0  0  0  0
   -2.2642   -1.7428    0.2300 H   0  0  0  0  0  0  0  0  0  0  0  0
  1  2  1  0
  2  3  1  0
  3  4  1  0
  4  5  1  0
  5  6  1  0
  6  7  1  0
  7  8  1  0
  8  9  1  0
  7  2  1  0
  5  3  1  0
  9  7  1  0
  1 10  1  0
  2 11  1  0
  3 12  1  0
  5 13  1  0
  6 14  1  0
  6 15  1  0
  8 16  1  0
  8 17  1  0
M  END
