
     RDKit          3D

 17 19  0  0  0  0  0  0  0  0999 V2000
    1.2438    1.9795    0.3086 O   0  0  0  0  0  0  0  0  0  0  0  0
    1.2017    0.6891   -0.1363 C   0  0  0  0  0  0  0  0  0  0  0  0
    1.3741   -0.4730    0.8116 C   0  0  0  0  0  0  0  0  0  0  0  0
    1.9564   -1.6313    0.2586 O   0  0  0  0  0  0  0  0  0  0  0  0
    0.0388   -0.1512    0.4738 C   0  0  0  0  0  0  0  0  0  0  0  0
   -0.9087    0.5239    1.1682 O   0  0  0  0  0  0  0  0  0  0  0  0
   -1.6479    0.5439   -0.0408 C   0  0  0  0  0  0  0  0  0  0  0  0
   -2.3790   -0.6832   -0.3438 C   0  0  0  0  0  0  0  0  0  0  0  0
   -0.8898   -0.7545   -0.4784 C   0  0  0  0  0  0  0  0  0  0  0  0
    2.0742    2.2015    0.7634 H   0  0  0  0  0  0  0  0  0  0  0  0
    1.3648    0.5003   -1.2379 H   0  0  0  0  0  0  0  0  0  0  0  0
    1.7944   -0.1961    1.7897 H   0  0  0  0  0  0  0  0  0  0  0  0
    2.7810   -1.3469   -0.1712 H   0  0  0  0  0  0  0  0  0  0  0  0
   -1.5193    1.3890   -0.7146 H   0  0  0  0  0  0  0  0  0  0  0  0
   -3.0275   -0.6597   -1.2520 H   0  0  0  0  0  0  0  0  0  0  0  0
   -2.8950   -1.1730    0.5118 H   0  0  0  0  0  0  0  0  0  0  0  0
   -0.5621   -0.7583   -1.5583 H   0  0  0  0  0  0  0  0  0  0  0  0
  1  2  1  0
  2  3  1  0
  3  4  1  0
  3  5  1  0
  5  6  1  0
  6  7  1  0
  7  8  1  0
  8  9  1  0
  5  2  1  0
  9  7  1  0
  9  5  1  0
  1 10  1  0
  2 11  1  0
  3 12  1  0
  4 13  1  0
  7 14  1  0
  8 15  1  0
  8 16  1  0
  9 17  1  0
M  END
