
     RDKit          3D

 16 17  0  0  0  0  0  0  0  0999 V2000
   -1.1484   -0.1613    1.4804 O   0  0  0  0  0  0  0  0  0  0  0  0
   -1.2546   -0.2724    0.1122 C   0  0  0  0  0  0  0  0  0  0  0  0
   -0.2069   -1.1500   -0.5338 C   0  0  0  0  0  0  0  0  0  0  0  0
    1.0916   -1.0012    0.1577 C   0  0  0  0  0  0  0  0  0  0  0  0
    1.5639    0.2115    0.3569 C   0  0  0  0  0  0  0  0  0  0  0  0
    0.6728    1.3403   -0.0889 C   0  0  0  0  0  0  0  0  0  0  0  0
   -0.5605    0.7564   -0.7112 C   0  0  0  0  0  0  0  0  0  0  0  0
   -0.1819   -0.2467   -1.6019 O   0  0  0  0  0  0  0  0  0  0  0  0
   -1.7602   -0.8351    1.8782 H   0  0  0  0  0  0  0  0  0  0  0  0
   -2.2589   -0.4871   -0.2547 H   0  0  0  0  0  0  0  0  0  0  0  0
   -0.5123   -2.1653   -0.7803 H   0  0  0  0  0  0  0  0  0  0  0  0
    1.6271   -1.8669    0.4847 H   0  0  0  0  0  0  0  0  0  0  0  0
    2.5206    0.4223    0.8064 H   0  0  0  0  0  0  0  0  0  0  0  0
    0.4637    2.0074    0.7623 H   0  0  0  0  0  0  0  0  0  0  0  0
    1.1802    1.9459   -0.8773 H   0  0  0  0  0  0  0  0  0  0  0  0
   -1.2362    1.5023   -1.1905 H   0  0  0  0  0  0  0  0  0  0  0  0
  1  2  1  0
  2  3  1  0
  3  4  1  0
  4  5  2  0
  5  6  1  0
  6  7  1  0
  7  8  1  0
  7  2  1  0
  8  3  1  0
  1  9  1  0
  2 10  1  0
  3 11  1  0
  4 12  1  0
  5 13  1  0
  6 14  1  0
  6 15  1  0
  7 16  1  0
M  END
