
     RDKit          3D

 21 22  0  0  0  0  0  0  0  0999 V2000
   -1.2293   -1.6751    1.5676 O   0  0  0  0  0  0  0  0  0  0  0  0
   -1.3047   -0.9337    0.4024 C   0  0  0  0  0  0  0  0  0  0  0  0
   -2.4089    0.1372    0.4435 C   0  0  0  0  0  0  0  0  0  0  0  0
   -1.4809    0.9093   -0.5050 C   0  0  0  0  0  0  0  0  0  0  0  0
   -0.3572    0.2119    0.2791 C   0  0  0  0  0  0  0  0  0  0  0  0
    0.8942   -0.0013   -0.5000 C   0  0  0  0  0  0  0  0  0  0  0  0
    1.7935    1.2200   -0.5689 C   0  0  0  0  0  0  0  0  0  0  0  0
    2.2353   -0.0265    0.1533 C   0  0  0  0  0  0  0  0  0  0  0  0
    3.2837   -0.7165   -0.4203 O   0  0  0  0  0  0  0  0  0  0  0  0
   -1.0667   -2.6244    1.3014 H   0  0  0  0  0  0  0  0  0  0  0  0
   -1.4433   -1.5327   -0.5133 H   0  0  0  0  0  0  0  0  0  0  0  0
   -2.4174    0.6119    1.4516 H   0  0  0  0  0  0  0  0  0  0  0  0
   -3.3586   -0.1641    0.0221 H   0  0  0  0  0  0  0  0  0  0  0  0
   -1.5631    0.4679   -1.5040 H   0  0  0  0  0  0  0  0  0  0  0  0
   -1.5108    1.9899   -0.4026 H   0  0  0  0  0  0  0  0  0  0  0  0
   -0.2260    0.7500    1.2300 H   0  0  0  0  0  0  0  0  0  0  0  0
    0.7655   -0.5522   -1.4524 H   0  0  0  0  0  0  0  0  0  0  0  0
    1.5567    2.0977    0.0641 H   0  0  0  0  0  0  0  0  0  0  0  0
    2.3026    1.4683   -1.4984 H   0  0  0  0  0  0  0  0  0  0  0  0
    2.2902    0.0456    1.2611 H   0  0  0  0  0  0  0  0  0  0  0  0
    3.2453   -1.6833   -0.2320 H   0  0  0  0  0  0  0  0  0  0  0  0
  1  2  1  0
  2  3  1  0
  3  4  1  0
  4  5  1  0
  5  6  1  0
  6  7  1  0
  7  8  1  0
  8  9  1  0
  5  2  1  0
  8  6  1  0
  1 10  1  0
  2 11  1  0
  3 12  1  0
  3 13  1  0
  4 14  1  0
  4 15  1  0
  5 16  1  0
  6 17  1  0
  7 18  1  0
  7 19  1  0
  8 20  1  0
  9 21  1  0
M  END
