
     RDKit          3D

 16 18  0  0  0  0  0  0  0  0999 V2000
   -0.4619    1.3836   -1.5842 O   0  0  0  0  0  0  0  0  0  0  0  0
   -0.2538    0.9838   -0.2720 C   0  0  0  0  0  0  0  0  0  0  0  0
    1.1531    0.7392    0.1402 C   0  0  0  0  0  0  0  0  0  0  0  0
    1.8730   -0.5093   -0.0698 C   0  0  0  0  0  0  0  0  0  0  0  0
    0.6398   -0.5969    0.7735 C   0  0  0  0  0  0  0  0  0  0  0  0
   -0.6341   -0.4233    0.0187 C   0  0  0  0  0  0  0  0  0  0  0  0
   -1.8488   -1.0288    0.1361 C   0  0  0  0  0  0  0  0  0  0  0  0
   -1.0139   -1.2980   -0.9644 O   0  0  0  0  0  0  0  0  0  0  0  0
   -0.7007    2.3464   -1.5951 H   0  0  0  0  0  0  0  0  0  0  0  0
   -0.7951    1.6764    0.4376 H   0  0  0  0  0  0  0  0  0  0  0  0
    1.5770    1.4719    0.8485 H   0  0  0  0  0  0  0  0  0  0  0  0
    1.8243   -1.1058   -1.0032 H   0  0  0  0  0  0  0  0  0  0  0  0
    2.8144   -0.6535    0.4822 H   0  0  0  0  0  0  0  0  0  0  0  0
    0.6808   -0.6151    1.8650 H   0  0  0  0  0  0  0  0  0  0  0  0
   -2.8154   -0.4908   -0.0683 H   0  0  0  0  0  0  0  0  0  0  0  0
   -2.0385   -1.8800    0.8551 H   0  0  0  0  0  0  0  0  0  0  0  0
  1  2  1  0
  2  3  1  0
  3  4  1  0
  4  5  1  0
  5  6  1  0
  6  7  1  0
  7  8  1  0
  6  2  1  0
  5  3  1  0
  8  6  1  0
  1  9  1  0
  2 10  1  0
  3 11  1  0
  4 12  1  0
  4 13  1  0
  5 14  1  0
  7 15  1  0
  7 16  1  0
M  END
