
     RDKit          3D

 19 20  0  0  0  0  0  0  0  0999 V2000
   -1.9232    1.5081    0.3559 O   0  0  0  0  0  0  0  0  0  0  0  0
   -1.5234    0.5058   -0.5090 C   0  0  0  0  0  0  0  0  0  0  0  0
   -1.9392   -0.8611    0.0322 C   0  0  0  0  0  0  0  0  0  0  0  0
   -0.8070   -1.2006    0.9405 C   0  0  0  0  0  0  0  0  0  0  0  0
    0.2733   -0.5056    0.6472 C   0  0  0  0  0  0  0  0  0  0  0  0
    1.6973   -0.2018    0.9588 C   0  0  0  0  0  0  0  0  0  0  0  0
    2.2265    0.1028   -0.4134 C   0  0  0  0  0  0  0  0  0  0  0  0
    1.0822    0.7295   -1.0965 C   0  0  0  0  0  0  0  0  0  0  0  0
   -0.0254    0.3578   -0.4857 C   0  0  0  0  0  0  0  0  0  0  0  0
   -2.0510    2.3490   -0.1760 H   0  0  0  0  0  0  0  0  0  0  0  0
   -1.8688    0.6301   -1.5353 H   0  0  0  0  0  0  0  0  0  0  0  0
   -2.8631   -0.8129    0.6246 H   0  0  0  0  0  0  0  0  0  0  0  0
   -2.0580   -1.5945   -0.7895 H   0  0  0  0  0  0  0  0  0  0  0  0
   -0.8939   -1.9356    1.7372 H   0  0  0  0  0  0  0  0  0  0  0  0
    2.2087   -1.0672    1.4251 H   0  0  0  0  0  0  0  0  0  0  0  0
    1.7755    0.7135    1.5828 H   0  0  0  0  0  0  0  0  0  0  0  0
    3.1271    0.7481   -0.3950 H   0  0  0  0  0  0  0  0  0  0  0  0
    2.4107   -0.8621   -0.9321 H   0  0  0  0  0  0  0  0  0  0  0  0
    1.1517    1.3967   -1.9719 H   0  0  0  0  0  0  0  0  0  0  0  0
  1  2  1  0
  2  3  1  0
  3  4  1  0
  4  5  2  0
  5  6  1  0
  6  7  1  0
  7  8  1  0
  8  9  2  0
  9  2  1  0
  9  5  1  0
  1 10  1  0
  2 11  1  0
  3 12  1  0
  3 13  1  0
  4 14  1  0
  6 15  1  0
  6 16  1  0
  7 17  1  0
  7 18  1  0
  8 19  1  0
M  END
