
     RDKit          3D

 18 19  0  0  0  0  0  0  0  0999 V2000
    2.6706   -0.3756    0.4314 O   0  0  0  0  0  0  0  0  0  0  0  0
    1.4423   -0.7071   -0.0870 C   0  0  0  0  0  0  0  0  0  0  0  0
    0.3658   -0.6107    0.9909 C   0  0  0  0  0  0  0  0  0  0  0  0
   -0.4728    0.1153    0.0077 C   0  0  0  0  0  0  0  0  0  0  0  0
   -1.6135   -0.5943   -0.6158 C   0  0  0  0  0  0  0  0  0  0  0  0
   -2.4473    0.4000   -0.0524 O   0  0  0  0  0  0  0  0  0  0  0  0
   -1.3815    1.1730    0.4717 C   0  0  0  0  0  0  0  0  0  0  0  0
    0.7121    0.4360   -0.8001 C   0  0  0  0  0  0  0  0  0  0  0  0
    2.9772    0.4468   -0.0420 H   0  0  0  0  0  0  0  0  0  0  0  0
    1.3888   -1.6006   -0.7212 H   0  0  0  0  0  0  0  0  0  0  0  0
    0.0049   -1.5722    1.3759 H   0  0  0  0  0  0  0  0  0  0  0  0
    0.6783    0.0564    1.8189 H   0  0  0  0  0  0  0  0  0  0  0  0
   -1.6282   -0.6075   -1.7287 H   0  0  0  0  0  0  0  0  0  0  0  0
   -1.8107   -1.5943   -0.1489 H   0  0  0  0  0  0  0  0  0  0  0  0
   -1.2573    2.1550    0.0032 H   0  0  0  0  0  0  0  0  0  0  0  0
   -1.4403    1.2242    1.5892 H   0  0  0  0  0  0  0  0  0  0  0  0
    0.5603    0.2763   -1.8792 H   0  0  0  0  0  0  0  0  0  0  0  0
    1.2513    1.3793   -0.6138 H   0  0  0  0  0  0  0  0  0  0  0  0
  1  2  1  0
  2  3  1  0
  3  4  1  0
  4  5  1  0
  5  6  1  0
  6  7  1  0
  4  8  1  0
  8  2  1  0
  7  4  1  0
  1  9  1  0
  2 10  1  0
  3 11  1  0
  3 12  1  0
  5 13  1  0
  5 14  1  0
  7 15  1  0
  7 16  1  0
  8 17  1  0
  8 18  1  0
M  END
