
     RDKit          3D

 19 21  0  0  0  0  0  0  0  0999 V2000
   -2.4213   -0.6333   -1.2498 O   0  0  0  0  0  0  0  0  0  0  0  0
   -1.6169   -0.3217   -0.1485 C   0  0  0  0  0  0  0  0  0  0  0  0
   -0.3135   -1.0613   -0.1505 C   0  0  0  0  0  0  0  0  0  0  0  0
    0.6984   -0.0830    0.3265 C   0  0  0  0  0  0  0  0  0  0  0  0
    1.9875   -0.4241    0.8984 C   0  0  0  0  0  0  0  0  0  0  0  0
    1.9794   -0.0055   -0.5269 C   0  0  0  0  0  0  0  0  0  0  0  0
    0.0145    1.2340    0.5012 C   0  0  0  0  0  0  0  0  0  0  0  0
   -0.3849    1.7567   -0.8169 O   0  0  0  0  0  0  0  0  0  0  0  0
   -1.3295    1.1382   -0.0250 C   0  0  0  0  0  0  0  0  0  0  0  0
   -3.3522   -0.3613   -0.9634 H   0  0  0  0  0  0  0  0  0  0  0  0
   -2.1791   -0.6523    0.7593 H   0  0  0  0  0  0  0  0  0  0  0  0
   -0.1215   -1.4030   -1.1828 H   0  0  0  0  0  0  0  0  0  0  0  0
   -0.3148   -1.9308    0.5286 H   0  0  0  0  0  0  0  0  0  0  0  0
    2.1924   -1.5150    1.0736 H   0  0  0  0  0  0  0  0  0  0  0  0
    2.4831    0.2751    1.5957 H   0  0  0  0  0  0  0  0  0  0  0  0
    2.1342   -0.7706   -1.2988 H   0  0  0  0  0  0  0  0  0  0  0  0
    2.3571    0.9951   -0.7966 H   0  0  0  0  0  0  0  0  0  0  0  0
    0.3564    1.9864    1.2078 H   0  0  0  0  0  0  0  0  0  0  0  0
   -2.1691    1.7764    0.2681 H   0  0  0  0  0  0  0  0  0  0  0  0
  1  2  1  0
  2  3  1  0
  3  4  1  0
  4  5  1  0
  5  6  1  0
  4  7  1  0
  7  8  1  0
  8  9  1  0
  9  2  1  0
  6  4  1  0
  9  7  1  0
  1 10  1  0
  2 11  1  0
  3 12  1  0
  3 13  1  0
  5 14  1  0
  5 15  1  0
  6 16  1  0
  6 17  1  0
  7 18  1  0
  9 19  1  0
M  END
