
     RDKit          3D

 19 21  0  0  0  0  0  0  0  0999 V2000
    2.5038   -0.0012    0.3504 O   0  0  0  0  0  0  0  0  0  0  0  0
    1.1777    0.3698    0.4833 C   0  0  0  0  0  0  0  0  0  0  0  0
    0.2813   -0.6305    1.1717 C   0  0  0  0  0  0  0  0  0  0  0  0
   -1.1249   -0.7851    0.7724 C   0  0  0  0  0  0  0  0  0  0  0  0
   -1.7984    0.4132    0.1510 C   0  0  0  0  0  0  0  0  0  0  0  0
   -0.8117    0.9761   -0.8500 C   0  0  0  0  0  0  0  0  0  0  0  0
    0.3835    0.0950   -0.7973 C   0  0  0  0  0  0  0  0  0  0  0  0
    1.1181   -0.0829   -1.9256 O   0  0  0  0  0  0  0  0  0  0  0  0
   -0.0922   -1.1660   -0.1657 C   0  0  0  0  0  0  0  0  0  0  0  0
    3.0673    0.7361    0.7160 H   0  0  0  0  0  0  0  0  0  0  0  0
    1.0267    1.3875    0.8979 H   0  0  0  0  0  0  0  0  0  0  0  0
    0.6521   -1.2508    1.9827 H   0  0  0  0  0  0  0  0  0  0  0  0
   -1.7429   -1.4681    1.3498 H   0  0  0  0  0  0  0  0  0  0  0  0
   -2.1138    1.1691    0.9066 H   0  0  0  0  0  0  0  0  0  0  0  0
   -2.6961    0.1019   -0.4494 H   0  0  0  0  0  0  0  0  0  0  0  0
   -1.2416    1.1252   -1.8481 H   0  0  0  0  0  0  0  0  0  0  0  0
   -0.5161    1.9797   -0.4632 H   0  0  0  0  0  0  0  0  0  0  0  0
    1.7683   -0.8177   -1.7665 H   0  0  0  0  0  0  0  0  0  0  0  0
    0.1590   -2.1515   -0.5159 H   0  0  0  0  0  0  0  0  0  0  0  0
  1  2  1  0
  2  3  1  0
  3  4  1  0
  4  5  1  0
  5  6  1  0
  6  7  1  0
  7  8  1  0
  7  9  1  0
  7  2  1  0
  9  3  1  0
  9  4  1  0
  1 10  1  0
  2 11  1  0
  3 12  1  0
  4 13  1  0
  5 14  1  0
  5 15  1  0
  6 16  1  0
  6 17  1  0
  8 18  1  0
  9 19  1  0
M  END
