
     RDKit          3D

 19 21  0  0  0  0  0  0  0  0999 V2000
    0.2444    1.3336    1.7925 O   0  0  0  0  0  0  0  0  0  0  0  0
   -0.0406    0.1707    1.1476 C   0  0  0  0  0  0  0  0  0  0  0  0
   -1.2989    0.2045    0.3149 C   0  0  0  0  0  0  0  0  0  0  0  0
   -0.8553    0.7046   -1.0656 C   0  0  0  0  0  0  0  0  0  0  0  0
   -0.0142   -0.5824   -1.0242 C   0  0  0  0  0  0  0  0  0  0  0  0
   -1.2219   -1.1712   -0.3253 C   0  0  0  0  0  0  0  0  0  0  0  0
    0.9399   -0.2203    0.0733 C   0  0  0  0  0  0  0  0  0  0  0  0
    2.2890   -0.2173    0.0361 C   0  0  0  0  0  0  0  0  0  0  0  0
    1.6714    1.0104   -0.3432 O   0  0  0  0  0  0  0  0  0  0  0  0
   -0.5539    1.8320    2.0844 H   0  0  0  0  0  0  0  0  0  0  0  0
   -0.1389   -0.6935    1.8387 H   0  0  0  0  0  0  0  0  0  0  0  0
   -2.2065    0.5492    0.7123 H   0  0  0  0  0  0  0  0  0  0  0  0
   -1.6544    0.6328   -1.7957 H   0  0  0  0  0  0  0  0  0  0  0  0
   -0.2158    1.5808   -1.0506 H   0  0  0  0  0  0  0  0  0  0  0  0
    0.3186   -0.9863   -1.9383 H   0  0  0  0  0  0  0  0  0  0  0  0
   -2.0282   -1.3982   -1.0353 H   0  0  0  0  0  0  0  0  0  0  0  0
   -1.0139   -1.9137    0.4493 H   0  0  0  0  0  0  0  0  0  0  0  0
    2.9349   -0.1853    0.9519 H   0  0  0  0  0  0  0  0  0  0  0  0
    2.8444   -0.6504   -0.8227 H   0  0  0  0  0  0  0  0  0  0  0  0
  1  2  1  0
  2  3  1  0
  3  4  1  0
  4  5  1  0
  5  6  1  0
  5  7  1  0
  7  8  1  0
  8  9  1  0
  7  2  1  0
  6  3  1  0
  9  7  1  0
  1 10  1  0
  2 11  1  0
  3 12  1  0
  4 13  1  0
  4 14  1  0
  5 15  1  0
  6 16  1  0
  6 17  1  0
  8 18  1  0
  8 19  1  0
M  END
