
     RDKit          3D

 21 22  0  0  0  0  0  0  0  0999 V2000
    2.4239   -0.1378   -1.1936 O   0  0  0  0  0  0  0  0  0  0  0  0
    1.9598    0.5954   -0.1287 C   0  0  0  0  0  0  0  0  0  0  0  0
    1.5864   -0.3993    1.0050 C   0  0  0  0  0  0  0  0  0  0  0  0
    0.4783   -0.7272    0.0541 C   0  0  0  0  0  0  0  0  0  0  0  0
   -0.8663   -1.1075    0.5995 C   0  0  0  0  0  0  0  0  0  0  0  0
   -1.9294   -0.5760   -0.3700 C   0  0  0  0  0  0  0  0  0  0  0  0
   -1.9703    0.9134   -0.2669 C   0  0  0  0  0  0  0  0  0  0  0  0
   -0.5994    1.4574   -0.3371 C   0  0  0  0  0  0  0  0  0  0  0  0
    0.5089    0.7801   -0.1928 C   0  0  0  0  0  0  0  0  0  0  0  0
    3.4071   -0.2357   -1.2290 H   0  0  0  0  0  0  0  0  0  0  0  0
    2.5732    1.4345    0.2150 H   0  0  0  0  0  0  0  0  0  0  0  0
    2.3874   -1.1126    1.1250 H   0  0  0  0  0  0  0  0  0  0  0  0
    1.2472    0.1790    1.8759 H   0  0  0  0  0  0  0  0  0  0  0  0
    0.7995   -1.2964   -0.8228 H   0  0  0  0  0  0  0  0  0  0  0  0
   -0.9430   -2.2123    0.5355 H   0  0  0  0  0  0  0  0  0  0  0  0
   -1.0385   -0.7598    1.6236 H   0  0  0  0  0  0  0  0  0  0  0  0
   -2.9204   -1.0029   -0.1236 H   0  0  0  0  0  0  0  0  0  0  0  0
   -1.6137   -0.8816   -1.3657 H   0  0  0  0  0  0  0  0  0  0  0  0
   -2.5258    1.2947   -1.1525 H   0  0  0  0  0  0  0  0  0  0  0  0
   -2.4935    1.2480    0.6796 H   0  0  0  0  0  0  0  0  0  0  0  0
   -0.4715    2.5467   -0.5305 H   0  0  0  0  0  0  0  0  0  0  0  0
  1  2  1  0
  2  3  1  0
  3  4  1  0
  4  5  1  0
  5  6  1  0
  6  7  1  0
  7  8  1  0
  8  9  2  0
  9  2  1  0
  9  4  1  0
  1 10  1  0
  2 11  1  0
  3 12  1  0
  3 13  1  0
  4 14  1  0
  5 15  1  0
  5 16  1  0
  6 17  1  0
  6 18  1  0
  7 19  1  0
  7 20  1  0
  8 21  1  0
M  END
