
     RDKit          3D

 21 23  0  0  0  0  0  0  0  0999 V2000
    1.3743    0.2060   -1.6839 O   0  0  0  0  0  0  0  0  0  0  0  0
    1.5497    0.0938   -0.3188 C   0  0  0  0  0  0  0  0  0  0  0  0
    0.7603    1.0744    0.5207 C   0  0  0  0  0  0  0  0  0  0  0  0
   -0.5758    1.4102   -0.0667 C   0  0  0  0  0  0  0  0  0  0  0  0
   -1.2465    0.2522   -0.6979 C   0  0  0  0  0  0  0  0  0  0  0  0
   -1.9328   -0.8102    0.0311 C   0  0  0  0  0  0  0  0  0  0  0  0
   -0.5821   -1.0568   -0.5299 C   0  0  0  0  0  0  0  0  0  0  0  0
    0.6552   -0.9893    0.3071 C   0  0  0  0  0  0  0  0  0  0  0  0
    0.5510   -0.0936    1.4957 C   0  0  0  0  0  0  0  0  0  0  0  0
    1.9290   -0.4905   -2.1075 H   0  0  0  0  0  0  0  0  0  0  0  0
    2.5923    0.0443    0.0139 H   0  0  0  0  0  0  0  0  0  0  0  0
    1.3078    1.9048    0.9491 H   0  0  0  0  0  0  0  0  0  0  0  0
   -1.2193    1.8317    0.7498 H   0  0  0  0  0  0  0  0  0  0  0  0
   -0.4246    2.2501   -0.7773 H   0  0  0  0  0  0  0  0  0  0  0  0
   -1.6404    0.4565   -1.7373 H   0  0  0  0  0  0  0  0  0  0  0  0
   -2.7994   -1.3380   -0.4651 H   0  0  0  0  0  0  0  0  0  0  0  0
   -2.0090   -0.8686    1.1296 H   0  0  0  0  0  0  0  0  0  0  0  0
   -0.5170   -1.7345   -1.3912 H   0  0  0  0  0  0  0  0  0  0  0  0
    1.1956   -1.9271    0.4191 H   0  0  0  0  0  0  0  0  0  0  0  0
    1.4256   -0.2408    2.1636 H   0  0  0  0  0  0  0  0  0  0  0  0
   -0.3939    0.0253    1.9959 H   0  0  0  0  0  0  0  0  0  0  0  0
  1  2  1  0
  2  3  1  0
  3  4  1  0
  4  5  1  0
  5  6  1  0
  6  7  1  0
  7  8  1  0
  8  9  1  0
  8  2  1  0
  9  3  1  0
  7  5  1  0
  1 10  1  0
  2 11  1  0
  3 12  1  0
  4 13  1  0
  4 14  1  0
  5 15  1  0
  6 16  1  0
  6 17  1  0
  7 18  1  0
  8 19  1  0
  9 20  1  0
  9 21  1  0
M  END
