
     RDKit          3D

 12 11  0  0  0  0  0  0  0  0999 V2000
    2.5193   -1.0521   -0.1176 O   0  0  0  0  0  0  0  0  0  0  0  0
    1.9571    0.2125    0.0192 C   0  0  0  0  0  0  0  0  0  0  0  0
    0.4978    0.0263   -0.0162 C   0  0  0  0  0  0  0  0  0  0  0  0
   -0.7079   -0.1294   -0.0337 C   0  0  0  0  0  0  0  0  0  0  0  0
   -2.1633   -0.3298   -0.0329 C   0  0  0  0  0  0  0  0  0  0  0  0
   -2.8368    0.9008   -0.2255 O   0  0  0  0  0  0  0  0  0  0  0  0
    3.5015   -0.9624   -0.0406 H   0  0  0  0  0  0  0  0  0  0  0  0
    2.2762    0.6733    0.9856 H   0  0  0  0  0  0  0  0  0  0  0  0
    2.2878    0.8456   -0.8472 H   0  0  0  0  0  0  0  0  0  0  0  0
   -2.4322   -1.0241   -0.8754 H   0  0  0  0  0  0  0  0  0  0  0  0
   -2.4696   -0.7593    0.9232 H   0  0  0  0  0  0  0  0  0  0  0  0
   -2.4299    1.5987    0.3161 H   0  0  0  0  0  0  0  0  0  0  0  0
  1  2  1  0
  2  3  1  0
  3  4  3  0
  4  5  1  0
  5  6  1  0
  1  7  1  0
  2  8  1  0
  2  9  1  0
  5 10  1  0
  5 11  1  0
  6 12  1  0
M  END
