
     RDKit          3D

 17 17  0  0  0  0  0  0  0  0999 V2000
    3.4451   -0.8424   -0.0536 O   0  0  0  0  0  0  0  0  0  0  0  0
    3.0483    0.3418   -0.6509 C   0  0  0  0  0  0  0  0  0  0  0  0
    1.5796    0.4459   -0.5089 C   0  0  0  0  0  0  0  0  0  0  0  0
    0.3782    0.5252   -0.4010 C   0  0  0  0  0  0  0  0  0  0  0  0
   -1.0796    0.6304   -0.2888 C   0  0  0  0  0  0  0  0  0  0  0  0
   -1.6318    0.3093    1.0429 C   0  0  0  0  0  0  0  0  0  0  0  0
   -2.6540    1.1427    1.4876 O   0  0  0  0  0  0  0  0  0  0  0  0
   -1.8887   -0.6308   -0.0939 C   0  0  0  0  0  0  0  0  0  0  0  0
   -1.1770   -1.8419   -0.1481 O   0  0  0  0  0  0  0  0  0  0  0  0
    2.9981   -1.5862   -0.5616 H   0  0  0  0  0  0  0  0  0  0  0  0
    3.3340    0.2896   -1.7247 H   0  0  0  0  0  0  0  0  0  0  0  0
    3.5655    1.2183   -0.2170 H   0  0  0  0  0  0  0  0  0  0  0  0
   -1.5793    1.4108   -0.9142 H   0  0  0  0  0  0  0  0  0  0  0  0
   -0.9450   -0.0153    1.8438 H   0  0  0  0  0  0  0  0  0  0  0  0
   -2.8176    1.8932    0.8621 H   0  0  0  0  0  0  0  0  0  0  0  0
   -2.8903   -0.7034   -0.5483 H   0  0  0  0  0  0  0  0  0  0  0  0
   -1.6856   -2.5871    0.2082 H   0  0  0  0  0  0  0  0  0  0  0  0
  1  2  1  0
  2  3  1  0
  3  4  3  0
  4  5  1  0
  5  6  1  0
  6  7  1  0
  6  8  1  0
  8  9  1  0
  8  5  1  0
  1 10  1  0
  2 11  1  0
  2 12  1  0
  5 13  1  0
  6 14  1  0
  7 15  1  0
  8 16  1  0
  9 17  1  0
M  END
