
     RDKit          3D

 21 21  0  0  0  0  0  0  0  0999 V2000
    3.9223    0.5778    0.7088 O   0  0  0  0  0  0  0  0  0  0  0  0
    3.6132   -0.6465    0.0826 C   0  0  0  0  0  0  0  0  0  0  0  0
    2.1494   -0.6994    0.0003 C   0  0  0  0  0  0  0  0  0  0  0  0
    0.9344   -0.7278   -0.0820 C   0  0  0  0  0  0  0  0  0  0  0  0
   -0.5231   -0.7654   -0.1854 C   0  0  0  0  0  0  0  0  0  0  0  0
   -1.1067   -0.3124    1.1349 C   0  0  0  0  0  0  0  0  0  0  0  0
   -2.3337    0.5023    0.7793 C   0  0  0  0  0  0  0  0  0  0  0  0
   -2.1384    0.9911   -0.6245 C   0  0  0  0  0  0  0  0  0  0  0  0
   -0.9596    0.2603   -1.2056 C   0  0  0  0  0  0  0  0  0  0  0  0
    3.1876    0.8607    1.3085 H   0  0  0  0  0  0  0  0  0  0  0  0
    3.9705   -1.5022    0.6842 H   0  0  0  0  0  0  0  0  0  0  0  0
    4.0562   -0.6503   -0.9406 H   0  0  0  0  0  0  0  0  0  0  0  0
   -0.9193   -1.7448   -0.4504 H   0  0  0  0  0  0  0  0  0  0  0  0
   -1.3357   -1.1898    1.7596 H   0  0  0  0  0  0  0  0  0  0  0  0
   -0.4001    0.3265    1.7089 H   0  0  0  0  0  0  0  0  0  0  0  0
   -2.4422    1.3425    1.5019 H   0  0  0  0  0  0  0  0  0  0  0  0
   -3.2061   -0.1966    0.8795 H   0  0  0  0  0  0  0  0  0  0  0  0
   -3.0842    0.7715   -1.1907 H   0  0  0  0  0  0  0  0  0  0  0  0
   -1.9783    2.0896   -0.6305 H   0  0  0  0  0  0  0  0  0  0  0  0
   -1.2862   -0.2481   -2.1335 H   0  0  0  0  0  0  0  0  0  0  0  0
   -0.1202    0.9610   -1.4622 H   0  0  0  0  0  0  0  0  0  0  0  0
  1  2  1  0
  2  3  1  0
  3  4  3  0
  4  5  1  0
  5  6  1  0
  6  7  1  0
  7  8  1  0
  8  9  1  0
  9  5  1  0
  1 10  1  0
  2 11  1  0
  2 12  1  0
  5 13  1  0
  6 14  1  0
  6 15  1  0
  7 16  1  0
  7 17  1  0
  8 18  1  0
  8 19  1  0
  9 20  1  0
  9 21  1  0
M  END
