
     RDKit          3D

 21 21  0  0  0  0  0  0  0  0999 V2000
    3.3255   -2.4577   -0.4605 O   0  0  0  0  0  0  0  0  0  0  0  0
    2.5894   -1.5572   -1.2582 C   0  0  0  0  0  0  0  0  0  0  0  0
    1.2632   -1.4534   -0.6237 C   0  0  0  0  0  0  0  0  0  0  0  0
    0.1714   -1.3761   -0.1095 C   0  0  0  0  0  0  0  0  0  0  0  0
   -1.1403   -1.2873    0.5359 C   0  0  0  0  0  0  0  0  0  0  0  0
   -1.4101    0.1786    0.7986 C   0  0  0  0  0  0  0  0  0  0  0  0
   -1.4049    0.9173   -0.5242 C   0  0  0  0  0  0  0  0  0  0  0  0
   -1.6486    2.3936   -0.5479 C   0  0  0  0  0  0  0  0  0  0  0  0
   -0.2557    1.9129   -0.7418 C   0  0  0  0  0  0  0  0  0  0  0  0
    4.2344   -2.0656   -0.3803 H   0  0  0  0  0  0  0  0  0  0  0  0
    2.5054   -1.9906   -2.2860 H   0  0  0  0  0  0  0  0  0  0  0  0
    3.0898   -0.5677   -1.3060 H   0  0  0  0  0  0  0  0  0  0  0  0
   -1.9116   -1.6586   -0.1547 H   0  0  0  0  0  0  0  0  0  0  0  0
   -1.1970   -1.8922    1.4514 H   0  0  0  0  0  0  0  0  0  0  0  0
   -0.6519    0.6022    1.4968 H   0  0  0  0  0  0  0  0  0  0  0  0
   -2.4357    0.2396    1.2203 H   0  0  0  0  0  0  0  0  0  0  0  0
   -1.6747    0.3166   -1.4206 H   0  0  0  0  0  0  0  0  0  0  0  0
   -2.1909    2.8202   -1.4351 H   0  0  0  0  0  0  0  0  0  0  0  0
   -1.8617    2.9262    0.4007 H   0  0  0  0  0  0  0  0  0  0  0  0
    0.4590    1.9951    0.1201 H   0  0  0  0  0  0  0  0  0  0  0  0
    0.1449    2.0041   -1.7666 H   0  0  0  0  0  0  0  0  0  0  0  0
  1  2  1  0
  2  3  1  0
  3  4  3  0
  4  5  1  0
  5  6  1  0
  6  7  1  0
  7  8  1  0
  8  9  1  0
  9  7  1  0
  1 10  1  0
  2 11  1  0
  2 12  1  0
  5 13  1  0
  5 14  1  0
  6 15  1  0
  6 16  1  0
  7 17  1  0
  8 18  1  0
  8 19  1  0
  9 20  1  0
  9 21  1  0
M  END
