
     RDKit          3D

 17 18  0  0  0  0  0  0  0  0999 V2000
    2.2387    2.4351    1.8403 O   0  0  0  0  0  0  0  0  0  0  0  0
    0.9783    2.5413    1.2638 C   0  0  0  0  0  0  0  0  0  0  0  0
    0.6520    1.2341    0.6275 C   0  0  0  0  0  0  0  0  0  0  0  0
    0.3665    0.1557    0.1166 C   0  0  0  0  0  0  0  0  0  0  0  0
    0.0336   -1.0704   -0.4908 C   0  0  0  0  0  0  0  0  0  0  0  0
   -0.6245   -2.1561    0.2654 C   0  0  0  0  0  0  0  0  0  0  0  0
   -1.4150   -1.3575   -0.7492 C   0  0  0  0  0  0  0  0  0  0  0  0
   -0.9209   -1.2584   -2.1656 C   0  0  0  0  0  0  0  0  0  0  0  0
    0.4116   -1.3854   -1.7911 O   0  0  0  0  0  0  0  0  0  0  0  0
    2.9705    2.7937    1.2817 H   0  0  0  0  0  0  0  0  0  0  0  0
    1.0341    3.2828    0.4327 H   0  0  0  0  0  0  0  0  0  0  0  0
    0.2073    2.8407    1.9909 H   0  0  0  0  0  0  0  0  0  0  0  0
   -0.5028   -3.2179   -0.0570 H   0  0  0  0  0  0  0  0  0  0  0  0
   -0.8363   -1.9548    1.3217 H   0  0  0  0  0  0  0  0  0  0  0  0
   -2.1745   -0.6308   -0.3985 H   0  0  0  0  0  0  0  0  0  0  0  0
   -1.0750   -0.2076   -2.5356 H   0  0  0  0  0  0  0  0  0  0  0  0
   -1.3435   -2.0446   -2.7945 H   0  0  0  0  0  0  0  0  0  0  0  0
  1  2  1  0
  2  3  1  0
  3  4  3  0
  4  5  1  0
  5  6  1  0
  6  7  1  0
  7  8  1  0
  8  9  1  0
  7  5  1  0
  9  5  1  0
  1 10  1  0
  2 11  1  0
  2 12  1  0
  6 13  1  0
  6 14  1  0
  7 15  1  0
  8 16  1  0
  8 17  1  0
M  END
