
     RDKit          3D

 15 14  0  0  0  0  0  0  0  0999 V2000
    3.3922    0.4285    1.0004 O   0  0  0  0  0  0  0  0  0  0  0  0
    2.6343    0.1089   -0.1315 C   0  0  0  0  0  0  0  0  0  0  0  0
    1.2003    0.1906    0.1476 C   0  0  0  0  0  0  0  0  0  0  0  0
    0.0203    0.2410    0.3900 C   0  0  0  0  0  0  0  0  0  0  0  0
   -1.4243    0.3109    0.6992 C   0  0  0  0  0  0  0  0  0  0  0  0
   -2.1467   -0.2004   -0.5290 C   0  0  0  0  0  0  0  0  0  0  0  0
   -1.7853   -1.5119   -0.8283 O   0  0  0  0  0  0  0  0  0  0  0  0
    2.8041    0.7474    1.7446 H   0  0  0  0  0  0  0  0  0  0  0  0
    2.9437    0.8285   -0.9308 H   0  0  0  0  0  0  0  0  0  0  0  0
    2.9038   -0.9182   -0.4990 H   0  0  0  0  0  0  0  0  0  0  0  0
   -1.6766   -0.2940    1.5919 H   0  0  0  0  0  0  0  0  0  0  0  0
   -1.7353    1.3557    0.8940 H   0  0  0  0  0  0  0  0  0  0  0  0
   -3.2544   -0.1764   -0.3628 H   0  0  0  0  0  0  0  0  0  0  0  0
   -1.9529    0.5022   -1.3654 H   0  0  0  0  0  0  0  0  0  0  0  0
   -1.9232   -1.6128   -1.8209 H   0  0  0  0  0  0  0  0  0  0  0  0
  1  2  1  0
  2  3  1  0
  3  4  3  0
  4  5  1  0
  5  6  1  0
  6  7  1  0
  1  8  1  0
  2  9  1  0
  2 10  1  0
  5 11  1  0
  5 12  1  0
  6 13  1  0
  6 14  1  0
  7 15  1  0
M  END
