
     RDKit          3D

 19 19  0  0  0  0  0  0  0  0999 V2000
    3.6546    0.6578   -1.1071 O   0  0  0  0  0  0  0  0  0  0  0  0
    3.2392    0.5470    0.2244 C   0  0  0  0  0  0  0  0  0  0  0  0
    1.8179    0.1634    0.2539 C   0  0  0  0  0  0  0  0  0  0  0  0
    0.6517   -0.1399    0.2789 C   0  0  0  0  0  0  0  0  0  0  0  0
   -0.7378   -0.4964    0.3315 C   0  0  0  0  0  0  0  0  0  0  0  0
   -1.0533   -1.7487    0.8078 O   0  0  0  0  0  0  0  0  0  0  0  0
   -1.3827   -0.2912   -1.0440 C   0  0  0  0  0  0  0  0  0  0  0  0
   -2.6398    0.1364   -0.2727 C   0  0  0  0  0  0  0  0  0  0  0  0
   -1.6816    0.5955    0.8346 C   0  0  0  0  0  0  0  0  0  0  0  0
    3.4012   -0.1337   -1.6428 H   0  0  0  0  0  0  0  0  0  0  0  0
    3.8523   -0.1770    0.7951 H   0  0  0  0  0  0  0  0  0  0  0  0
    3.3395    1.5644    0.6700 H   0  0  0  0  0  0  0  0  0  0  0  0
   -0.3158   -2.2212    1.2537 H   0  0  0  0  0  0  0  0  0  0  0  0
   -0.9424    0.5303   -1.6244 H   0  0  0  0  0  0  0  0  0  0  0  0
   -1.5103   -1.2018   -1.6341 H   0  0  0  0  0  0  0  0  0  0  0  0
   -3.1932   -0.7446    0.1079 H   0  0  0  0  0  0  0  0  0  0  0  0
   -3.2163    0.9338   -0.7356 H   0  0  0  0  0  0  0  0  0  0  0  0
   -1.2338    1.5834    0.6517 H   0  0  0  0  0  0  0  0  0  0  0  0
   -2.0494    0.4424    1.8512 H   0  0  0  0  0  0  0  0  0  0  0  0
  1  2  1  0
  2  3  1  0
  3  4  3  0
  4  5  1  0
  5  6  1  0
  5  7  1  0
  7  8  1  0
  8  9  1  0
  9  5  1  0
  1 10  1  0
  2 11  1  0
  2 12  1  0
  6 13  1  0
  7 14  1  0
  7 15  1  0
  8 16  1  0
  8 17  1  0
  9 18  1  0
  9 19  1  0
M  END
