
     RDKit          3D

 19 19  0  0  0  0  0  0  0  0999 V2000
    3.3747    1.1836   -0.7237 O   0  0  0  0  0  0  0  0  0  0  0  0
    2.9226   -0.1491   -0.5941 C   0  0  0  0  0  0  0  0  0  0  0  0
    1.6198   -0.2052    0.0654 C   0  0  0  0  0  0  0  0  0  0  0  0
    0.5533   -0.2357    0.6207 C   0  0  0  0  0  0  0  0  0  0  0  0
   -0.7310   -0.2768    1.3174 C   0  0  0  0  0  0  0  0  0  0  0  0
   -0.9124   -1.4827    1.9942 O   0  0  0  0  0  0  0  0  0  0  0  0
   -1.8734   -0.1227    0.3467 C   0  0  0  0  0  0  0  0  0  0  0  0
   -1.9904    1.0978   -0.4904 C   0  0  0  0  0  0  0  0  0  0  0  0
   -1.4765   -0.1722   -1.1039 C   0  0  0  0  0  0  0  0  0  0  0  0
    3.1573    1.6526    0.1360 H   0  0  0  0  0  0  0  0  0  0  0  0
    3.6866   -0.7616   -0.0550 H   0  0  0  0  0  0  0  0  0  0  0  0
    2.8446   -0.5361   -1.6215 H   0  0  0  0  0  0  0  0  0  0  0  0
   -0.7595    0.5201    2.1146 H   0  0  0  0  0  0  0  0  0  0  0  0
   -0.7249   -2.2293    1.3463 H   0  0  0  0  0  0  0  0  0  0  0  0
   -2.8165   -0.6338    0.6656 H   0  0  0  0  0  0  0  0  0  0  0  0
   -1.2709    1.9318   -0.3458 H   0  0  0  0  0  0  0  0  0  0  0  0
   -3.0220    1.3638   -0.7999 H   0  0  0  0  0  0  0  0  0  0  0  0
   -2.1563   -0.7823   -1.7297 H   0  0  0  0  0  0  0  0  0  0  0  0
   -0.4251   -0.1623   -1.3920 H   0  0  0  0  0  0  0  0  0  0  0  0
  1  2  1  0
  2  3  1  0
  3  4  3  0
  4  5  1  0
  5  6  1  0
  5  7  1  0
  7  8  1  0
  8  9  1  0
  9  7  1  0
  1 10  1  0
  2 11  1  0
  2 12  1  0
  5 13  1  0
  6 14  1  0
  7 15  1  0
  8 16  1  0
  8 17  1  0
  9 18  1  0
  9 19  1  0
M  END
