
     RDKit          3D

 21 20  0  0  0  0  0  0  0  0999 V2000
    4.4612    0.3478    0.7308 O   0  0  0  0  0  0  0  0  0  0  0  0
    3.9630    0.3420   -0.5772 C   0  0  0  0  0  0  0  0  0  0  0  0
    2.5237    0.6522   -0.4704 C   0  0  0  0  0  0  0  0  0  0  0  0
    1.3859    0.8859   -0.3989 C   0  0  0  0  0  0  0  0  0  0  0  0
   -0.0994    1.2048   -0.2845 C   0  0  0  0  0  0  0  0  0  0  0  0
   -0.7959   -0.0914   -0.4716 C   0  0  0  0  0  0  0  0  0  0  0  0
   -2.3113    0.1586   -0.3483 C   0  0  0  0  0  0  0  0  0  0  0  0
   -3.0070   -1.1762   -0.5964 C   0  0  0  0  0  0  0  0  0  0  0  0
   -2.4591   -2.0557    0.3377 O   0  0  0  0  0  0  0  0  0  0  0  0
    3.8589   -0.1708    1.3288 H   0  0  0  0  0  0  0  0  0  0  0  0
    4.4963    1.1825   -1.1169 H   0  0  0  0  0  0  0  0  0  0  0  0
    4.1227   -0.6344   -1.0667 H   0  0  0  0  0  0  0  0  0  0  0  0
   -0.3482    1.9108   -1.0779 H   0  0  0  0  0  0  0  0  0  0  0  0
   -0.2824    1.6261    0.7118 H   0  0  0  0  0  0  0  0  0  0  0  0
   -0.5404   -0.8475    0.3312 H   0  0  0  0  0  0  0  0  0  0  0  0
   -0.5952   -0.5965   -1.4306 H   0  0  0  0  0  0  0  0  0  0  0  0
   -2.6028    0.4736    0.6662 H   0  0  0  0  0  0  0  0  0  0  0  0
   -2.6403    0.9365   -1.0600 H   0  0  0  0  0  0  0  0  0  0  0  0
   -2.7519   -1.4837   -1.6153 H   0  0  0  0  0  0  0  0  0  0  0  0
   -4.0974   -1.0672   -0.4180 H   0  0  0  0  0  0  0  0  0  0  0  0
   -2.2802   -1.5977    1.1907 H   0  0  0  0  0  0  0  0  0  0  0  0
  1  2  1  0
  2  3  1  0
  3  4  3  0
  4  5  1  0
  5  6  1  0
  6  7  1  0
  7  8  1  0
  8  9  1  0
  1 10  1  0
  2 11  1  0
  2 12  1  0
  5 13  1  0
  5 14  1  0
  6 15  1  0
  6 16  1  0
  7 17  1  0
  7 18  1  0
  8 19  1  0
  8 20  1  0
  9 21  1  0
M  END
