
     RDKit          3D

 16 16  0  0  0  0  0  0  0  0999 V2000
    3.7228   -0.8206    0.2377 O   0  0  0  0  0  0  0  0  0  0  0  0
    2.9839    0.0379   -0.6080 C   0  0  0  0  0  0  0  0  0  0  0  0
    1.5636   -0.0323   -0.2647 C   0  0  0  0  0  0  0  0  0  0  0  0
    0.3954   -0.0703    0.0246 C   0  0  0  0  0  0  0  0  0  0  0  0
   -1.0405   -0.0951    0.3944 C   0  0  0  0  0  0  0  0  0  0  0  0
   -1.8930    1.0667    0.0401 C   0  0  0  0  0  0  0  0  0  0  0  0
   -1.9494   -0.2527   -0.7781 C   0  0  0  0  0  0  0  0  0  0  0  0
   -3.1360   -0.9799   -0.6082 O   0  0  0  0  0  0  0  0  0  0  0  0
    3.2177   -0.9252    1.0903 H   0  0  0  0  0  0  0  0  0  0  0  0
    3.3977    1.0644   -0.3984 H   0  0  0  0  0  0  0  0  0  0  0  0
    3.0983   -0.2638   -1.6534 H   0  0  0  0  0  0  0  0  0  0  0  0
   -1.3276   -0.7177    1.2811 H   0  0  0  0  0  0  0  0  0  0  0  0
   -2.7779    1.2817    0.6824 H   0  0  0  0  0  0  0  0  0  0  0  0
   -1.3725    1.9174   -0.4597 H   0  0  0  0  0  0  0  0  0  0  0  0
   -1.5650   -0.2227   -1.8046 H   0  0  0  0  0  0  0  0  0  0  0  0
   -3.3175   -0.9879    0.3631 H   0  0  0  0  0  0  0  0  0  0  0  0
  1  2  1  0
  2  3  1  0
  3  4  3  0
  4  5  1  0
  5  6  1  0
  6  7  1  0
  7  8  1  0
  7  5  1  0
  1  9  1  0
  2 10  1  0
  2 11  1  0
  5 12  1  0
  6 13  1  0
  6 14  1  0
  7 15  1  0
  8 16  1  0
M  END
