
     RDKit          3D

 19 19  0  0  0  0  0  0  0  0999 V2000
   -3.4542   -0.9362    1.6313 O   0  0  0  0  0  0  0  0  0  0  0  0
   -3.1047   -0.8568    0.3019 C   0  0  0  0  0  0  0  0  0  0  0  0
   -1.8274   -0.1572    0.1570 C   0  0  0  0  0  0  0  0  0  0  0  0
   -0.7874    0.4364    0.0364 C   0  0  0  0  0  0  0  0  0  0  0  0
    0.4704    1.1793   -0.1243 C   0  0  0  0  0  0  0  0  0  0  0  0
    1.4537    0.4889   -1.0712 C   0  0  0  0  0  0  0  0  0  0  0  0
    1.9998   -0.2683    0.1153 C   0  0  0  0  0  0  0  0  0  0  0  0
    3.3780   -0.3544    0.1610 O   0  0  0  0  0  0  0  0  0  0  0  0
    1.4052    0.8317    1.0014 C   0  0  0  0  0  0  0  0  0  0  0  0
   -4.4476   -1.1212    1.6500 H   0  0  0  0  0  0  0  0  0  0  0  0
   -3.9209   -0.3170   -0.2587 H   0  0  0  0  0  0  0  0  0  0  0  0
   -3.0620   -1.8771   -0.1731 H   0  0  0  0  0  0  0  0  0  0  0  0
    0.3711    2.2581   -0.2788 H   0  0  0  0  0  0  0  0  0  0  0  0
    2.1497    1.2487   -1.4652 H   0  0  0  0  0  0  0  0  0  0  0  0
    0.9661   -0.1745   -1.7841 H   0  0  0  0  0  0  0  0  0  0  0  0
    1.5440   -1.2664    0.2779 H   0  0  0  0  0  0  0  0  0  0  0  0
    3.7129   -1.2170    0.5155 H   0  0  0  0  0  0  0  0  0  0  0  0
    2.1876    1.6299    1.1161 H   0  0  0  0  0  0  0  0  0  0  0  0
    0.9657    0.4730    1.9284 H   0  0  0  0  0  0  0  0  0  0  0  0
  1  2  1  0
  2  3  1  0
  3  4  3  0
  4  5  1  0
  5  6  1  0
  6  7  1  0
  7  8  1  0
  7  9  1  0
  9  5  1  0
  1 10  1  0
  2 11  1  0
  2 12  1  0
  5 13  1  0
  6 14  1  0
  6 15  1  0
  7 16  1  0
  8 17  1  0
  9 18  1  0
  9 19  1  0
M  END
