
     RDKit          3D

 19 19  0  0  0  0  0  0  0  0999 V2000
    4.2350   -0.9383    0.9696 O   0  0  0  0  0  0  0  0  0  0  0  0
    3.5430   -0.9060   -0.2343 C   0  0  0  0  0  0  0  0  0  0  0  0
    2.1491   -0.4419   -0.0370 C   0  0  0  0  0  0  0  0  0  0  0  0
    1.0086   -0.0815    0.1171 C   0  0  0  0  0  0  0  0  0  0  0  0
   -0.3755    0.3690    0.3026 C   0  0  0  0  0  0  0  0  0  0  0  0
   -1.2548   -0.5113   -0.5439 C   0  0  0  0  0  0  0  0  0  0  0  0
   -2.6958   -0.0302   -0.3411 C   0  0  0  0  0  0  0  0  0  0  0  0
   -2.9910    1.3926   -0.7215 C   0  0  0  0  0  0  0  0  0  0  0  0
   -3.3587    0.2571   -1.5274 O   0  0  0  0  0  0  0  0  0  0  0  0
    4.8136   -0.1373    1.1066 H   0  0  0  0  0  0  0  0  0  0  0  0
    3.5366   -1.9435   -0.6534 H   0  0  0  0  0  0  0  0  0  0  0  0
    3.9996   -0.2192   -0.9579 H   0  0  0  0  0  0  0  0  0  0  0  0
   -0.5195    1.4160   -0.0114 H   0  0  0  0  0  0  0  0  0  0  0  0
   -0.6853    0.3013    1.3607 H   0  0  0  0  0  0  0  0  0  0  0  0
   -1.2005   -1.5753   -0.2216 H   0  0  0  0  0  0  0  0  0  0  0  0
   -0.9403   -0.4020   -1.5917 H   0  0  0  0  0  0  0  0  0  0  0  0
   -3.2534   -0.4221    0.5189 H   0  0  0  0  0  0  0  0  0  0  0  0
   -3.8695    1.8808   -0.2986 H   0  0  0  0  0  0  0  0  0  0  0  0
   -2.1415    1.9917   -1.1079 H   0  0  0  0  0  0  0  0  0  0  0  0
  1  2  1  0
  2  3  1  0
  3  4  3  0
  4  5  1  0
  5  6  1  0
  6  7  1  0
  7  8  1  0
  8  9  1  0
  9  7  1  0
  1 10  1  0
  2 11  1  0
  2 12  1  0
  5 13  1  0
  5 14  1  0
  6 15  1  0
  6 16  1  0
  7 17  1  0
  8 18  1  0
  8 19  1  0
M  END
