
     RDKit          3D

 17 17  0  0  0  0  0  0  0  0999 V2000
    3.8980    0.1697   -0.1529 O   0  0  0  0  0  0  0  0  0  0  0  0
    2.8746   -0.1349   -1.0580 C   0  0  0  0  0  0  0  0  0  0  0  0
    1.5722   -0.1012   -0.3610 C   0  0  0  0  0  0  0  0  0  0  0  0
    0.5163   -0.0820    0.2211 C   0  0  0  0  0  0  0  0  0  0  0  0
   -0.7789   -0.0766    0.9144 C   0  0  0  0  0  0  0  0  0  0  0  0
   -0.8357   -1.1160    1.8600 O   0  0  0  0  0  0  0  0  0  0  0  0
   -1.8438   -0.2602   -0.1184 C   0  0  0  0  0  0  0  0  0  0  0  0
   -2.7602    0.8424   -0.3605 C   0  0  0  0  0  0  0  0  0  0  0  0
   -3.1706   -0.2463    0.5558 O   0  0  0  0  0  0  0  0  0  0  0  0
    3.5512    0.7681    0.5571 H   0  0  0  0  0  0  0  0  0  0  0  0
    3.0313   -1.1139   -1.5422 H   0  0  0  0  0  0  0  0  0  0  0  0
    2.8286    0.6317   -1.8526 H   0  0  0  0  0  0  0  0  0  0  0  0
   -0.9327    0.8723    1.4652 H   0  0  0  0  0  0  0  0  0  0  0  0
   -0.1419   -1.7999    1.7011 H   0  0  0  0  0  0  0  0  0  0  0  0
   -1.7454   -1.0532   -0.8644 H   0  0  0  0  0  0  0  0  0  0  0  0
   -3.4970    0.8998   -1.1636 H   0  0  0  0  0  0  0  0  0  0  0  0
   -2.5660    1.8002    0.1988 H   0  0  0  0  0  0  0  0  0  0  0  0
  1  2  1  0
  2  3  1  0
  3  4  3  0
  4  5  1  0
  5  6  1  0
  5  7  1  0
  7  8  1  0
  8  9  1  0
  9  7  1  0
  1 10  1  0
  2 11  1  0
  2 12  1  0
  5 13  1  0
  6 14  1  0
  7 15  1  0
  8 16  1  0
  8 17  1  0
M  END
