
     RDKit          3D

 19 19  0  0  0  0  0  0  0  0999 V2000
   -3.0732    1.0255   -2.1270 O   0  0  0  0  0  0  0  0  0  0  0  0
   -1.7330    0.3934   -2.2589 C   0  0  0  0  0  0  0  0  0  0  0  0
   -1.1706    0.3205   -1.0483 C   0  0  0  0  0  0  0  0  0  0  0  0
   -0.6813    0.2503    0.0542 C   0  0  0  0  0  0  0  0  0  0  0  0
   -0.0618    0.1833    1.4109 C   0  0  0  0  0  0  0  0  0  0  0  0
    1.2519    0.9845    1.1898 C   0  0  0  0  0  0  0  0  0  0  0  0
    2.1071    0.0786    0.5944 C   0  0  0  0  0  0  0  0  0  0  0  0
    1.4061   -1.2153    0.4623 C   0  0  0  0  0  0  0  0  0  0  0  0
    0.5205   -1.2126    1.6836 C   0  0  0  0  0  0  0  0  0  0  0  0
   -2.8423    1.9751   -1.9859 H   0  0  0  0  0  0  0  0  0  0  0  0
   -2.0428   -0.6332   -2.7333 H   0  0  0  0  0  0  0  0  0  0  0  0
   -1.3166    1.0072   -3.0470 H   0  0  0  0  0  0  0  0  0  0  0  0
   -0.5615    0.6076    2.2553 H   0  0  0  0  0  0  0  0  0  0  0  0
    1.3807    1.9874    1.3995 H   0  0  0  0  0  0  0  0  0  0  0  0
    3.0926    0.3676    0.3754 H   0  0  0  0  0  0  0  0  0  0  0  0
    2.0834   -2.0239    0.3465 H   0  0  0  0  0  0  0  0  0  0  0  0
    0.7476   -1.0584   -0.4701 H   0  0  0  0  0  0  0  0  0  0  0  0
    1.1899   -1.1358    2.5967 H   0  0  0  0  0  0  0  0  0  0  0  0
   -0.2967   -1.9019    1.7405 H   0  0  0  0  0  0  0  0  0  0  0  0
  1  2  1  0
  2  3  1  0
  3  4  3  0
  4  5  1  0
  5  6  1  0
  6  7  2  0
  7  8  1  0
  8  9  1  0
  9  5  1  0
  1 10  1  0
  2 11  1  0
  2 12  1  0
  5 13  1  0
  6 14  1  0
  7 15  1  0
  8 16  1  0
  8 17  1  0
  9 18  1  0
  9 19  1  0
M  END
