
     RDKit          3D

 17 17  0  0  0  0  0  0  0  0999 V2000
    3.7503    1.4735   -0.4595 O   0  0  0  0  0  0  0  0  0  0  0  0
    3.3706    0.3313    0.2821 C   0  0  0  0  0  0  0  0  0  0  0  0
    1.9204    0.1432    0.1696 C   0  0  0  0  0  0  0  0  0  0  0  0
    0.7164   -0.0136    0.0970 C   0  0  0  0  0  0  0  0  0  0  0  0
   -0.7091   -0.1750    0.0172 C   0  0  0  0  0  0  0  0  0  0  0  0
   -1.3832   -1.1951    0.5537 C   0  0  0  0  0  0  0  0  0  0  0  0
   -2.8054   -0.9484    0.2260 C   0  0  0  0  0  0  0  0  0  0  0  0
   -2.6968   -0.2471   -0.9908 O   0  0  0  0  0  0  0  0  0  0  0  0
   -1.7144    0.7084   -0.6457 C   0  0  0  0  0  0  0  0  0  0  0  0
    3.0962    1.5223   -1.2079 H   0  0  0  0  0  0  0  0  0  0  0  0
    3.6128    0.4685    1.3399 H   0  0  0  0  0  0  0  0  0  0  0  0
    3.8977   -0.5171   -0.1726 H   0  0  0  0  0  0  0  0  0  0  0  0
   -0.9409   -2.0098    1.1045 H   0  0  0  0  0  0  0  0  0  0  0  0
   -3.3960   -1.8689    0.1100 H   0  0  0  0  0  0  0  0  0  0  0  0
   -3.2254   -0.2563    0.9891 H   0  0  0  0  0  0  0  0  0  0  0  0
   -1.3158    1.2281   -1.5232 H   0  0  0  0  0  0  0  0  0  0  0  0
   -2.1775    1.3560    0.1107 H   0  0  0  0  0  0  0  0  0  0  0  0
  1  2  1  0
  2  3  1  0
  3  4  3  0
  4  5  1  0
  5  6  2  0
  6  7  1  0
  7  8  1  0
  8  9  1  0
  9  5  1  0
  1 10  1  0
  2 11  1  0
  2 12  1  0
  6 13  1  0
  7 14  1  0
  7 15  1  0
  9 16  1  0
  9 17  1  0
M  END
