
     RDKit          3D

 17 17  0  0  0  0  0  0  0  0999 V2000
    3.5599    1.1306   -0.3142 O   0  0  0  0  0  0  0  0  0  0  0  0
    3.1516   -0.1458   -0.6942 C   0  0  0  0  0  0  0  0  0  0  0  0
    1.6848   -0.1878   -0.5156 C   0  0  0  0  0  0  0  0  0  0  0  0
    0.4835   -0.2125   -0.3883 C   0  0  0  0  0  0  0  0  0  0  0  0
   -0.9434   -0.2584   -0.2180 C   0  0  0  0  0  0  0  0  0  0  0  0
   -1.3585   -0.8762    1.1188 C   0  0  0  0  0  0  0  0  0  0  0  0
   -2.6598   -0.3990    1.2346 O   0  0  0  0  0  0  0  0  0  0  0  0
   -2.7946    0.6711    0.3795 C   0  0  0  0  0  0  0  0  0  0  0  0
   -1.5217    1.0171   -0.0701 O   0  0  0  0  0  0  0  0  0  0  0  0
    3.4225    1.7977   -1.0326 H   0  0  0  0  0  0  0  0  0  0  0  0
    3.4096   -0.3569   -1.7559 H   0  0  0  0  0  0  0  0  0  0  0  0
    3.6607   -0.9084   -0.0698 H   0  0  0  0  0  0  0  0  0  0  0  0
   -1.4655   -0.7355   -1.0688 H   0  0  0  0  0  0  0  0  0  0  0  0
   -0.6827   -0.4153    1.8873 H   0  0  0  0  0  0  0  0  0  0  0  0
   -1.2783   -1.9645    1.1190 H   0  0  0  0  0  0  0  0  0  0  0  0
   -3.2852    1.5201    0.8963 H   0  0  0  0  0  0  0  0  0  0  0  0
   -3.3831    0.3236   -0.5080 H   0  0  0  0  0  0  0  0  0  0  0  0
  1  2  1  0
  2  3  1  0
  3  4  3  0
  4  5  1  0
  5  6  1  0
  6  7  1  0
  7  8  1  0
  8  9  1  0
  9  5  1  0
  1 10  1  0
  2 11  1  0
  2 12  1  0
  5 13  1  0
  6 14  1  0
  6 15  1  0
  8 16  1  0
  8 17  1  0
M  END
