
     RDKit          3D

 19 20  0  0  0  0  0  0  0  0999 V2000
    3.4822   -2.0310   -0.2463 O   0  0  0  0  0  0  0  0  0  0  0  0
    2.4756   -1.9865    0.7286 C   0  0  0  0  0  0  0  0  0  0  0  0
    1.5545   -0.8616    0.4287 C   0  0  0  0  0  0  0  0  0  0  0  0
    0.7952    0.0376    0.1744 C   0  0  0  0  0  0  0  0  0  0  0  0
   -0.1243    1.1225   -0.1552 C   0  0  0  0  0  0  0  0  0  0  0  0
   -1.0940    0.6853   -1.2211 C   0  0  0  0  0  0  0  0  0  0  0  0
   -1.6314   -0.2675   -0.1902 C   0  0  0  0  0  0  0  0  0  0  0  0
   -1.4441    1.0041    0.5729 C   0  0  0  0  0  0  0  0  0  0  0  0
   -2.0261    1.7037   -0.6268 C   0  0  0  0  0  0  0  0  0  0  0  0
    3.8263   -1.1204   -0.4224 H   0  0  0  0  0  0  0  0  0  0  0  0
    2.9090   -1.8597    1.7306 H   0  0  0  0  0  0  0  0  0  0  0  0
    1.8771   -2.9055    0.6152 H   0  0  0  0  0  0  0  0  0  0  0  0
    0.2986    2.1213   -0.2430 H   0  0  0  0  0  0  0  0  0  0  0  0
   -0.9062    0.5100   -2.1831 H   0  0  0  0  0  0  0  0  0  0  0  0
   -2.6503   -0.5648   -0.4311 H   0  0  0  0  0  0  0  0  0  0  0  0
   -0.9357   -1.0785    0.1122 H   0  0  0  0  0  0  0  0  0  0  0  0
   -1.6186    1.1925    1.5348 H   0  0  0  0  0  0  0  0  0  0  0  0
   -3.1001    1.5467   -0.8128 H   0  0  0  0  0  0  0  0  0  0  0  0
   -1.6878    2.7518   -0.7418 H   0  0  0  0  0  0  0  0  0  0  0  0
  1  2  1  0
  2  3  1  0
  3  4  3  0
  4  5  1  0
  5  6  1  0
  6  7  1  0
  7  8  1  0
  8  9  1  0
  8  5  1  0
  9  6  1  0
  1 10  1  0
  2 11  1  0
  2 12  1  0
  5 13  1  0
  6 14  1  0
  7 15  1  0
  7 16  1  0
  8 17  1  0
  9 18  1  0
  9 19  1  0
M  END
