
     RDKit          3D

 19 19  0  0  0  0  0  0  0  0999 V2000
    3.9951   -1.0157   -0.0679 O   0  0  0  0  0  0  0  0  0  0  0  0
    3.0193   -0.9011   -1.0700 C   0  0  0  0  0  0  0  0  0  0  0  0
    1.7691   -0.4427   -0.4514 C   0  0  0  0  0  0  0  0  0  0  0  0
    0.7304   -0.0456    0.0488 C   0  0  0  0  0  0  0  0  0  0  0  0
   -0.5086    0.4296    0.6182 C   0  0  0  0  0  0  0  0  0  0  0  0
   -1.0359    1.7352    0.0277 C   0  0  0  0  0  0  0  0  0  0  0  0
   -2.4184    1.0887    0.0469 C   0  0  0  0  0  0  0  0  0  0  0  0
   -1.6922   -0.2599   -0.0402 C   0  0  0  0  0  0  0  0  0  0  0  0
   -2.3253   -1.1934    0.7721 O   0  0  0  0  0  0  0  0  0  0  0  0
    4.2293   -1.9777    0.0805 H   0  0  0  0  0  0  0  0  0  0  0  0
    2.8920   -1.8740   -1.5702 H   0  0  0  0  0  0  0  0  0  0  0  0
    3.4020   -0.1692   -1.8070 H   0  0  0  0  0  0  0  0  0  0  0  0
   -0.6004    0.3566    1.7183 H   0  0  0  0  0  0  0  0  0  0  0  0
   -0.6693    1.8100   -1.0247 H   0  0  0  0  0  0  0  0  0  0  0  0
   -0.9167    2.6166    0.6521 H   0  0  0  0  0  0  0  0  0  0  0  0
   -3.0578    1.3195   -0.8078 H   0  0  0  0  0  0  0  0  0  0  0  0
   -2.9040    1.2019    1.0556 H   0  0  0  0  0  0  0  0  0  0  0  0
   -1.5169   -0.6131   -1.0690 H   0  0  0  0  0  0  0  0  0  0  0  0
   -2.3917   -2.0656    0.3126 H   0  0  0  0  0  0  0  0  0  0  0  0
  1  2  1  0
  2  3  1  0
  3  4  3  0
  4  5  1  0
  5  6  1  0
  6  7  1  0
  7  8  1  0
  8  9  1  0
  8  5  1  0
  1 10  1  0
  2 11  1  0
  2 12  1  0
  5 13  1  0
  6 14  1  0
  6 15  1  0
  7 16  1  0
  7 17  1  0
  8 18  1  0
  9 19  1  0
M  END
