
     RDKit          3D

 14 13  0  0  0  0  0  0  0  0999 V2000
    3.9011    1.0589   -0.1394 O   0  0  0  0  0  0  0  0  0  0  0  0
    3.3918   -0.2283   -0.1599 C   0  0  0  0  0  0  0  0  0  0  0  0
    1.9214   -0.1157   -0.0901 C   0  0  0  0  0  0  0  0  0  0  0  0
    0.7151   -0.0282   -0.0532 C   0  0  0  0  0  0  0  0  0  0  0  0
   -0.7052    0.0753   -0.0306 C   0  0  0  0  0  0  0  0  0  0  0  0
   -1.9104    0.1506    0.0017 C   0  0  0  0  0  0  0  0  0  0  0  0
   -3.3873    0.2197    0.0378 C   0  0  0  0  0  0  0  0  0  0  0  0
   -3.8819   -1.0801    0.1294 O   0  0  0  0  0  0  0  0  0  0  0  0
    3.2820    1.7123   -0.5684 H   0  0  0  0  0  0  0  0  0  0  0  0
    3.7163   -0.8447    0.6881 H   0  0  0  0  0  0  0  0  0  0  0  0
    3.6978   -0.7898   -1.0891 H   0  0  0  0  0  0  0  0  0  0  0  0
   -3.6991    0.7215   -0.8877 H   0  0  0  0  0  0  0  0  0  0  0  0
   -3.7218    0.7847    0.9170 H   0  0  0  0  0  0  0  0  0  0  0  0
   -3.3199   -1.6363   -0.4594 H   0  0  0  0  0  0  0  0  0  0  0  0
  1  2  1  0
  2  3  1  0
  3  4  3  0
  4  5  1  0
  5  6  3  0
  6  7  1  0
  7  8  1  0
  1  9  1  0
  2 10  1  0
  2 11  1  0
  7 12  1  0
  7 13  1  0
  8 14  1  0
M  END
