
     RDKit          3D

 17 18  0  0  0  0  0  0  0  0999 V2000
    3.7489    0.4771   -0.5522 O   0  0  0  0  0  0  0  0  0  0  0  0
    3.1768    0.6991    0.6881 C   0  0  0  0  0  0  0  0  0  0  0  0
    1.7257    0.5528    0.5401 C   0  0  0  0  0  0  0  0  0  0  0  0
    0.5139    0.4507    0.4226 C   0  0  0  0  0  0  0  0  0  0  0  0
   -0.9285    0.3192    0.2778 C   0  0  0  0  0  0  0  0  0  0  0  0
   -1.4157   -0.1419   -1.0266 C   0  0  0  0  0  0  0  0  0  0  0  0
   -2.9228   -0.3195   -1.1257 C   0  0  0  0  0  0  0  0  0  0  0  0
   -2.7965   -1.2837   -0.1079 O   0  0  0  0  0  0  0  0  0  0  0  0
   -1.4451   -1.0526    0.1497 C   0  0  0  0  0  0  0  0  0  0  0  0
    3.1308   -0.0354   -1.1253 H   0  0  0  0  0  0  0  0  0  0  0  0
    3.4394    1.7304    1.0181 H   0  0  0  0  0  0  0  0  0  0  0  0
    3.5811    0.0188    1.4784 H   0  0  0  0  0  0  0  0  0  0  0  0
   -1.5876    1.0244    0.8463 H   0  0  0  0  0  0  0  0  0  0  0  0
   -0.7727   -0.4398   -1.8541 H   0  0  0  0  0  0  0  0  0  0  0  0
   -3.2663   -0.7080   -2.0867 H   0  0  0  0  0  0  0  0  0  0  0  0
   -3.4068    0.6245   -0.7727 H   0  0  0  0  0  0  0  0  0  0  0  0
   -0.7746   -1.9158    0.2363 H   0  0  0  0  0  0  0  0  0  0  0  0
  1  2  1  0
  2  3  1  0
  3  4  3  0
  4  5  1  0
  5  6  1  0
  6  7  1  0
  7  8  1  0
  8  9  1  0
  9  5  1  0
  9  6  1  0
  1 10  1  0
  2 11  1  0
  2 12  1  0
  5 13  1  0
  6 14  1  0
  7 15  1  0
  7 16  1  0
  9 17  1  0
M  END
