
     RDKit          3D

 19 19  0  0  0  0  0  0  0  0999 V2000
    4.3300    0.0758    0.2155 O   0  0  0  0  0  0  0  0  0  0  0  0
    3.4412    0.6620    1.1155 C   0  0  0  0  0  0  0  0  0  0  0  0
    2.0623    0.4500    0.6735 C   0  0  0  0  0  0  0  0  0  0  0  0
    0.9246    0.2587    0.3134 C   0  0  0  0  0  0  0  0  0  0  0  0
   -0.4309    0.0262   -0.0903 C   0  0  0  0  0  0  0  0  0  0  0  0
   -0.7952   -0.3766   -1.2910 C   0  0  0  0  0  0  0  0  0  0  0  0
   -2.2693   -0.5022   -1.3245 C   0  0  0  0  0  0  0  0  0  0  0  0
   -2.5992   -0.8085    0.1194 C   0  0  0  0  0  0  0  0  0  0  0  0
   -1.6393    0.1954    0.7808 C   0  0  0  0  0  0  0  0  0  0  0  0
    4.4755    0.6225   -0.5842 H   0  0  0  0  0  0  0  0  0  0  0  0
    3.5711    0.2885    2.1318 H   0  0  0  0  0  0  0  0  0  0  0  0
    3.7045    1.7511    1.1403 H   0  0  0  0  0  0  0  0  0  0  0  0
   -0.1443   -0.5942   -2.1523 H   0  0  0  0  0  0  0  0  0  0  0  0
   -2.6995    0.4987   -1.5377 H   0  0  0  0  0  0  0  0  0  0  0  0
   -2.6231   -1.2836   -2.0142 H   0  0  0  0  0  0  0  0  0  0  0  0
   -3.6308   -0.5721    0.3861 H   0  0  0  0  0  0  0  0  0  0  0  0
   -2.2691   -1.8240    0.4251 H   0  0  0  0  0  0  0  0  0  0  0  0
   -1.4097   -0.0887    1.8117 H   0  0  0  0  0  0  0  0  0  0  0  0
   -1.9988    1.2210    0.6535 H   0  0  0  0  0  0  0  0  0  0  0  0
  1  2  1  0
  2  3  1  0
  3  4  3  0
  4  5  1  0
  5  6  2  0
  6  7  1  0
  7  8  1  0
  8  9  1  0
  9  5  1  0
  1 10  1  0
  2 11  1  0
  2 12  1  0
  6 13  1  0
  7 14  1  0
  7 15  1  0
  8 16  1  0
  8 17  1  0
  9 18  1  0
  9 19  1  0
M  END
