
     RDKit          3D

 17 18  0  0  0  0  0  0  0  0999 V2000
    3.7109    0.6987   -0.0378 O   0  0  0  0  0  0  0  0  0  0  0  0
    3.0670   -0.4788   -0.5812 C   0  0  0  0  0  0  0  0  0  0  0  0
    1.5368   -0.1196    0.1212 C   0  0  0  0  0  0  0  0  0  0  0  0
    0.5557    0.0953    0.5572 C   0  0  0  0  0  0  0  0  0  0  0  0
   -0.6719    0.3885    1.1102 C   0  0  0  0  0  0  0  0  0  0  0  0
   -1.5835   -0.7460    0.1600 C   0  0  0  0  0  0  0  0  0  0  0  0
   -2.4574   -0.3518    1.3108 C   0  0  0  0  0  0  0  0  0  0  0  0
   -2.0175    0.9975    0.7502 C   0  0  0  0  0  0  0  0  0  0  0  0
   -0.9656    1.7038    0.7982 O   0  0  0  0  0  0  0  0  0  0  0  0
    3.0752    1.4491   -0.3711 H   0  0  0  0  0  0  0  0  0  0  0  0
    3.4308   -1.2760    0.0013 H   0  0  0  0  0  0  0  0  0  0  0  0
    2.9468   -0.5126   -1.5883 H   0  0  0  0  0  0  0  0  0  0  0  0
   -1.7098   -0.1865   -0.7576 H   0  0  0  0  0  0  0  0  0  0  0  0
   -0.9701   -1.6049    0.1910 H   0  0  0  0  0  0  0  0  0  0  0  0
   -1.9997   -0.5898    2.3101 H   0  0  0  0  0  0  0  0  0  0  0  0
   -3.5181   -0.4913    1.2873 H   0  0  0  0  0  0  0  0  0  0  0  0
   -2.4299    1.0244   -0.3253 H   0  0  0  0  0  0  0  0  0  0  0  0
  1  2  1  0
  2  3  1  0
  3  4  3  0
  4  5  1  0
  5  6  1  0
  6  7  1  0
  7  8  1  0
  8  9  1  0
  8  5  1  0
  9  5  1  0
  1 10  1  0
  2 11  1  0
  2 12  1  0
  6 13  1  0
  6 14  1  0
  7 15  1  0
  7 16  1  0
  8 17  1  0
M  END
