
     RDKit          3D

 19 19  0  0  0  0  0  0  0  0999 V2000
    3.9205    1.2677   -0.1389 O   0  0  0  0  0  0  0  0  0  0  0  0
    3.5389   -0.0658   -0.2383 C   0  0  0  0  0  0  0  0  0  0  0  0
    2.1321   -0.1255    0.2078 C   0  0  0  0  0  0  0  0  0  0  0  0
    0.9724   -0.1732    0.5555 C   0  0  0  0  0  0  0  0  0  0  0  0
   -0.4271   -0.2322    1.0019 C   0  0  0  0  0  0  0  0  0  0  0  0
   -1.3422   -0.7098   -0.1055 C   0  0  0  0  0  0  0  0  0  0  0  0
   -2.7910   -0.7916    0.2909 C   0  0  0  0  0  0  0  0  0  0  0  0
   -2.3581    0.2681   -0.6663 C   0  0  0  0  0  0  0  0  0  0  0  0
   -2.1930    1.5760   -0.1835 O   0  0  0  0  0  0  0  0  0  0  0  0
    4.5846    1.4534   -0.8520 H   0  0  0  0  0  0  0  0  0  0  0  0
    4.1905   -0.7270    0.3673 H   0  0  0  0  0  0  0  0  0  0  0  0
    3.5916   -0.3360   -1.3121 H   0  0  0  0  0  0  0  0  0  0  0  0
   -0.5576   -0.9331    1.8481 H   0  0  0  0  0  0  0  0  0  0  0  0
   -0.7080    0.7922    1.3484 H   0  0  0  0  0  0  0  0  0  0  0  0
   -0.9130   -1.4853   -0.7647 H   0  0  0  0  0  0  0  0  0  0  0  0
   -3.3717   -1.6434   -0.1030 H   0  0  0  0  0  0  0  0  0  0  0  0
   -3.0888   -0.5041    1.3221 H   0  0  0  0  0  0  0  0  0  0  0  0
   -2.6210    0.1585   -1.7301 H   0  0  0  0  0  0  0  0  0  0  0  0
   -2.5591    2.2111   -0.8474 H   0  0  0  0  0  0  0  0  0  0  0  0
  1  2  1  0
  2  3  1  0
  3  4  3  0
  4  5  1  0
  5  6  1  0
  6  7  1  0
  7  8  1  0
  8  9  1  0
  8  6  1  0
  1 10  1  0
  2 11  1  0
  2 12  1  0
  5 13  1  0
  5 14  1  0
  6 15  1  0
  7 16  1  0
  7 17  1  0
  8 18  1  0
  9 19  1  0
M  END
