
     RDKit          3D

 15 15  0  0  0  0  0  0  0  0999 V2000
    3.1393    0.0455    1.8095 O   0  0  0  0  0  0  0  0  0  0  0  0
    2.1133    0.9261    1.7232 C   0  0  0  0  0  0  0  0  0  0  0  0
    0.8912    0.3276    1.1206 C   0  0  0  0  0  0  0  0  0  0  0  0
   -0.0110   -0.1098    0.6641 C   0  0  0  0  0  0  0  0  0  0  0  0
   -1.3195   -0.7622   -0.0085 C   0  0  0  0  0  0  0  0  0  0  0  0
   -2.1420    0.2081   -0.6630 C   0  0  0  0  0  0  0  0  0  0  0  0
   -1.2389   -0.6056   -1.5452 C   0  0  0  0  0  0  0  0  0  0  0  0
    3.0232   -0.9048    1.6289 H   0  0  0  0  0  0  0  0  0  0  0  0
    1.8111    1.3366    2.8104 H   0  0  0  0  0  0  0  0  0  0  0  0
    2.4136    1.7692    1.1074 H   0  0  0  0  0  0  0  0  0  0  0  0
   -1.3379   -1.8087    0.2180 H   0  0  0  0  0  0  0  0  0  0  0  0
   -3.2392    0.0853   -0.9016 H   0  0  0  0  0  0  0  0  0  0  0  0
   -1.9161    1.3139   -0.7195 H   0  0  0  0  0  0  0  0  0  0  0  0
   -0.3610   -0.3306   -2.0731 H   0  0  0  0  0  0  0  0  0  0  0  0
   -1.8260   -1.4906   -2.0512 H   0  0  0  0  0  0  0  0  0  0  0  0
  1  2  1  0
  2  3  1  0
  3  4  3  0
  4  5  1  0
  5  6  1  0
  6  7  1  0
  7  5  1  0
  1  8  1  0
  2  9  1  0
  2 10  1  0
  5 11  1  0
  6 12  1  0
  6 13  1  0
  7 14  1  0
  7 15  1  0
M  END
