
     RDKit          3D

 18 18  0  0  0  0  0  0  0  0999 V2000
    3.1612   -0.9280    2.3577 O   0  0  0  0  0  0  0  0  0  0  0  0
    2.9652    0.0866    1.4294 C   0  0  0  0  0  0  0  0  0  0  0  0
    1.6872   -0.0754    0.7670 C   0  0  0  0  0  0  0  0  0  0  0  0
    0.6224   -0.2267    0.2269 C   0  0  0  0  0  0  0  0  0  0  0  0
   -0.6607   -0.4257   -0.4042 C   0  0  0  0  0  0  0  0  0  0  0  0
   -1.1747    0.7592   -1.2057 C   0  0  0  0  0  0  0  0  0  0  0  0
   -2.5579    0.4216   -0.6799 C   0  0  0  0  0  0  0  0  0  0  0  0
   -1.8746   -0.2944    0.4666 C   0  0  0  0  0  0  0  0  0  0  0  0
    3.8892   -1.5317    2.0846 H   0  0  0  0  0  0  0  0  0  0  0  0
    3.0711    1.0568    1.9583 H   0  0  0  0  0  0  0  0  0  0  0  0
    3.8279    0.0505    0.7079 H   0  0  0  0  0  0  0  0  0  0  0  0
   -0.7325   -1.3758   -0.9984 H   0  0  0  0  0  0  0  0  0  0  0  0
   -0.8288    1.7092   -0.7980 H   0  0  0  0  0  0  0  0  0  0  0  0
   -1.0585    0.6370   -2.3097 H   0  0  0  0  0  0  0  0  0  0  0  0
   -3.0654   -0.2782   -1.3724 H   0  0  0  0  0  0  0  0  0  0  0  0
   -3.1552    1.3108   -0.3728 H   0  0  0  0  0  0  0  0  0  0  0  0
   -2.3295   -1.2825    0.7280 H   0  0  0  0  0  0  0  0  0  0  0  0
   -1.7863    0.3867    1.3317 H   0  0  0  0  0  0  0  0  0  0  0  0
  1  2  1  0
  2  3  1  0
  3  4  3  0
  4  5  1  0
  5  6  1  0
  6  7  1  0
  7  8  1  0
  8  5  1  0
  1  9  1  0
  2 10  1  0
  2 11  1  0
  5 12  1  0
  6 13  1  0
  6 14  1  0
  7 15  1  0
  7 16  1  0
  8 17  1  0
  8 18  1  0
M  END
