
     RDKit          3D

 19 18  0  0  0  0  0  0  0  0999 V2000
    4.5882    0.3071    0.5684 O   0  0  0  0  0  0  0  0  0  0  0  0
    3.8324    1.0180   -0.3558 C   0  0  0  0  0  0  0  0  0  0  0  0
    2.4052    0.9460   -0.0284 C   0  0  0  0  0  0  0  0  0  0  0  0
    1.2178    0.8719    0.2505 C   0  0  0  0  0  0  0  0  0  0  0  0
   -0.1950    0.7677    0.5769 C   0  0  0  0  0  0  0  0  0  0  0  0
   -0.6645   -0.3982   -0.0635 O   0  0  0  0  0  0  0  0  0  0  0  0
   -2.0176   -0.4639    0.2717 C   0  0  0  0  0  0  0  0  0  0  0  0
   -2.6942   -1.6675   -0.3357 C   0  0  0  0  0  0  0  0  0  0  0  0
   -4.0360   -1.6216    0.0701 O   0  0  0  0  0  0  0  0  0  0  0  0
    4.3635    0.5221    1.5054 H   0  0  0  0  0  0  0  0  0  0  0  0
    4.1510    2.0827   -0.4088 H   0  0  0  0  0  0  0  0  0  0  0  0
    4.0492    0.5582   -1.3547 H   0  0  0  0  0  0  0  0  0  0  0  0
   -0.3780    0.6657    1.6612 H   0  0  0  0  0  0  0  0  0  0  0  0
   -0.7946    1.6003    0.1379 H   0  0  0  0  0  0  0  0  0  0  0  0
   -2.0892   -0.5783    1.3684 H   0  0  0  0  0  0  0  0  0  0  0  0
   -2.5029    0.4433   -0.1196 H   0  0  0  0  0  0  0  0  0  0  0  0
   -2.6704   -1.6887   -1.4229 H   0  0  0  0  0  0  0  0  0  0  0  0
   -2.2775   -2.6111    0.0887 H   0  0  0  0  0  0  0  0  0  0  0  0
   -4.2876   -0.7539    0.4495 H   0  0  0  0  0  0  0  0  0  0  0  0
  1  2  1  0
  2  3  1  0
  3  4  3  0
  4  5  1  0
  5  6  1  0
  6  7  1  0
  7  8  1  0
  8  9  1  0
  1 10  1  0
  2 11  1  0
  2 12  1  0
  5 13  1  0
  5 14  1  0
  7 15  1  0
  7 16  1  0
  8 17  1  0
  8 18  1  0
  9 19  1  0
M  END
