
     RDKit          3D

 16 15  0  0  0  0  0  0  0  0999 V2000
    3.6867   -0.0734    0.3659 O   0  0  0  0  0  0  0  0  0  0  0  0
    2.6250   -0.9229    0.7432 C   0  0  0  0  0  0  0  0  0  0  0  0
    1.3365   -0.3219    0.3914 C   0  0  0  0  0  0  0  0  0  0  0  0
    0.2724    0.1858    0.0804 C   0  0  0  0  0  0  0  0  0  0  0  0
   -0.9804    0.7847   -0.3113 C   0  0  0  0  0  0  0  0  0  0  0  0
   -1.2148    0.6947   -1.6818 O   0  0  0  0  0  0  0  0  0  0  0  0
   -2.1035    0.1000    0.4148 C   0  0  0  0  0  0  0  0  0  0  0  0
   -3.2964    0.7484    0.0762 O   0  0  0  0  0  0  0  0  0  0  0  0
    3.9495   -0.1968   -0.5623 H   0  0  0  0  0  0  0  0  0  0  0  0
    2.7748   -1.9000    0.2419 H   0  0  0  0  0  0  0  0  0  0  0  0
    2.6907   -1.0406    1.8469 H   0  0  0  0  0  0  0  0  0  0  0  0
   -1.0228    1.8636   -0.0282 H   0  0  0  0  0  0  0  0  0  0  0  0
   -0.6490   -0.0330   -2.0437 H   0  0  0  0  0  0  0  0  0  0  0  0
   -2.1573   -0.9773    0.2586 H   0  0  0  0  0  0  0  0  0  0  0  0
   -1.9932    0.2583    1.5266 H   0  0  0  0  0  0  0  0  0  0  0  0
   -3.9180    0.8305    0.8370 H   0  0  0  0  0  0  0  0  0  0  0  0
  1  2  1  0
  2  3  1  0
  3  4  3  0
  4  5  1  0
  5  6  1  0
  5  7  1  0
  7  8  1  0
  1  9  1  0
  2 10  1  0
  2 11  1  0
  5 12  1  0
  6 13  1  0
  7 14  1  0
  7 15  1  0
  8 16  1  0
M  END
