
     RDKit          3D

 17 17  0  0  0  0  0  0  0  0999 V2000
    3.0815    0.5375   -1.5817 O   0  0  0  0  0  0  0  0  0  0  0  0
    2.5300    1.3080   -0.5886 C   0  0  0  0  0  0  0  0  0  0  0  0
    1.2397    0.7312   -0.1962 C   0  0  0  0  0  0  0  0  0  0  0  0
    0.1685    0.2604    0.1084 C   0  0  0  0  0  0  0  0  0  0  0  0
   -1.1267   -0.2822    0.4807 C   0  0  0  0  0  0  0  0  0  0  0  0
   -1.5886    0.0492    1.7353 O   0  0  0  0  0  0  0  0  0  0  0  0
   -2.1328   -0.1574   -0.6123 C   0  0  0  0  0  0  0  0  0  0  0  0
   -2.6222   -1.4301   -0.2376 O   0  0  0  0  0  0  0  0  0  0  0  0
   -1.3174   -1.7513    0.1115 C   0  0  0  0  0  0  0  0  0  0  0  0
    3.8992    0.0407   -1.2889 H   0  0  0  0  0  0  0  0  0  0  0  0
    3.2303    1.3506    0.2912 H   0  0  0  0  0  0  0  0  0  0  0  0
    2.3688    2.3487   -0.9885 H   0  0  0  0  0  0  0  0  0  0  0  0
   -1.1853    0.9208    1.9809 H   0  0  0  0  0  0  0  0  0  0  0  0
   -1.7450   -0.1831   -1.6292 H   0  0  0  0  0  0  0  0  0  0  0  0
   -2.8841    0.6406   -0.4948 H   0  0  0  0  0  0  0  0  0  0  0  0
   -0.7352   -2.0115   -0.7808 H   0  0  0  0  0  0  0  0  0  0  0  0
   -1.1808   -2.3723    1.0025 H   0  0  0  0  0  0  0  0  0  0  0  0
  1  2  1  0
  2  3  1  0
  3  4  3  0
  4  5  1  0
  5  6  1  0
  5  7  1  0
  7  8  1  0
  8  9  1  0
  9  5  1  0
  1 10  1  0
  2 11  1  0
  2 12  1  0
  6 13  1  0
  7 14  1  0
  7 15  1  0
  9 16  1  0
  9 17  1  0
M  END
