
     RDKit          3D

 19 19  0  0  0  0  0  0  0  0999 V2000
    3.7606   -0.8471   -1.9062 O   0  0  0  0  0  0  0  0  0  0  0  0
    3.3191    0.3175   -1.3080 C   0  0  0  0  0  0  0  0  0  0  0  0
    1.9011    0.2775   -0.9545 C   0  0  0  0  0  0  0  0  0  0  0  0
    0.7347    0.2281   -0.6504 C   0  0  0  0  0  0  0  0  0  0  0  0
   -0.6682    0.1822   -0.3068 C   0  0  0  0  0  0  0  0  0  0  0  0
   -1.1851   -1.1908    0.1110 C   0  0  0  0  0  0  0  0  0  0  0  0
   -1.1267    0.0009    1.0737 C   0  0  0  0  0  0  0  0  0  0  0  0
   -2.4727    0.5576    1.4856 C   0  0  0  0  0  0  0  0  0  0  0  0
   -2.7562    0.3023    2.8182 O   0  0  0  0  0  0  0  0  0  0  0  0
    3.7880   -1.6215   -1.3207 H   0  0  0  0  0  0  0  0  0  0  0  0
    3.8968    0.5071   -0.3738 H   0  0  0  0  0  0  0  0  0  0  0  0
    3.5484    1.1563   -2.0221 H   0  0  0  0  0  0  0  0  0  0  0  0
   -1.3267    0.7994   -0.9649 H   0  0  0  0  0  0  0  0  0  0  0  0
   -2.1816   -1.4465   -0.3176 H   0  0  0  0  0  0  0  0  0  0  0  0
   -0.4477   -1.9946    0.2541 H   0  0  0  0  0  0  0  0  0  0  0  0
   -0.4091   -0.0959    1.9272 H   0  0  0  0  0  0  0  0  0  0  0  0
   -2.5317    1.6639    1.2892 H   0  0  0  0  0  0  0  0  0  0  0  0
   -3.2733    0.0750    0.8884 H   0  0  0  0  0  0  0  0  0  0  0  0
   -2.5699    1.1287    3.3357 H   0  0  0  0  0  0  0  0  0  0  0  0
  1  2  1  0
  2  3  1  0
  3  4  3  0
  4  5  1  0
  5  6  1  0
  6  7  1  0
  7  8  1  0
  8  9  1  0
  7  5  1  0
  1 10  1  0
  2 11  1  0
  2 12  1  0
  5 13  1  0
  6 14  1  0
  6 15  1  0
  7 16  1  0
  8 17  1  0
  8 18  1  0
  9 19  1  0
M  END
