
     RDKit          3D

 17 17  0  0  0  0  0  0  0  0999 V2000
    3.4920    1.6627    0.1148 O   0  0  0  0  0  0  0  0  0  0  0  0
    3.2218    0.5972   -0.7433 C   0  0  0  0  0  0  0  0  0  0  0  0
    1.8520    0.1427   -0.4900 C   0  0  0  0  0  0  0  0  0  0  0  0
    0.7357   -0.2499   -0.2829 C   0  0  0  0  0  0  0  0  0  0  0  0
   -0.6108   -0.7427   -0.0141 C   0  0  0  0  0  0  0  0  0  0  0  0
   -1.2262    0.0377    1.0826 C   0  0  0  0  0  0  0  0  0  0  0  0
   -2.5306    0.1109    0.8560 C   0  0  0  0  0  0  0  0  0  0  0  0
   -2.7163   -0.6569   -0.4347 C   0  0  0  0  0  0  0  0  0  0  0  0
   -1.4785   -0.5216   -1.0720 O   0  0  0  0  0  0  0  0  0  0  0  0
    3.1337    1.5100    1.0278 H   0  0  0  0  0  0  0  0  0  0  0  0
    3.9718   -0.2041   -0.5865 H   0  0  0  0  0  0  0  0  0  0  0  0
    3.3254    1.0017   -1.7846 H   0  0  0  0  0  0  0  0  0  0  0  0
   -0.6231   -1.8366    0.1842 H   0  0  0  0  0  0  0  0  0  0  0  0
   -0.7626    0.4993    1.9498 H   0  0  0  0  0  0  0  0  0  0  0  0
   -3.3337    0.5845    1.4093 H   0  0  0  0  0  0  0  0  0  0  0  0
   -2.9095   -1.6969   -0.1827 H   0  0  0  0  0  0  0  0  0  0  0  0
   -3.5410   -0.2381   -1.0335 H   0  0  0  0  0  0  0  0  0  0  0  0
  1  2  1  0
  2  3  1  0
  3  4  3  0
  4  5  1  0
  5  6  1  0
  6  7  2  0
  7  8  1  0
  8  9  1  0
  9  5  1  0
  1 10  1  0
  2 11  1  0
  2 12  1  0
  5 13  1  0
  6 14  1  0
  7 15  1  0
  8 16  1  0
  8 17  1  0
M  END
