
     RDKit          3D

 17 18  0  0  0  0  0  0  0  0999 V2000
    3.1809    1.4025   -0.5914 O   0  0  0  0  0  0  0  0  0  0  0  0
    3.0947    0.2614    0.1728 C   0  0  0  0  0  0  0  0  0  0  0  0
    1.6977   -0.1776    0.1786 C   0  0  0  0  0  0  0  0  0  0  0  0
    0.5390   -0.5274    0.1834 C   0  0  0  0  0  0  0  0  0  0  0  0
   -0.8589   -0.9656    0.2080 C   0  0  0  0  0  0  0  0  0  0  0  0
   -1.6538   -0.5536   -1.0216 C   0  0  0  0  0  0  0  0  0  0  0  0
   -2.3953    0.4237   -0.0993 C   0  0  0  0  0  0  0  0  0  0  0  0
   -3.0844   -0.1408    0.9571 O   0  0  0  0  0  0  0  0  0  0  0  0
   -1.6855    0.0078    0.9963 C   0  0  0  0  0  0  0  0  0  0  0  0
    2.3000    1.8267   -0.6651 H   0  0  0  0  0  0  0  0  0  0  0  0
    3.5034    0.3647    1.1943 H   0  0  0  0  0  0  0  0  0  0  0  0
    3.7480   -0.5121   -0.3284 H   0  0  0  0  0  0  0  0  0  0  0  0
   -1.0270   -1.9949    0.5543 H   0  0  0  0  0  0  0  0  0  0  0  0
   -1.1009    0.0293   -1.7668 H   0  0  0  0  0  0  0  0  0  0  0  0
   -2.3124   -1.3516   -1.3912 H   0  0  0  0  0  0  0  0  0  0  0  0
   -2.6296    1.4194   -0.4755 H   0  0  0  0  0  0  0  0  0  0  0  0
   -1.3160    0.4880    1.8944 H   0  0  0  0  0  0  0  0  0  0  0  0
  1  2  1  0
  2  3  1  0
  3  4  3  0
  4  5  1  0
  5  6  1  0
  6  7  1  0
  7  8  1  0
  8  9  1  0
  9  5  1  0
  9  7  1  0
  1 10  1  0
  2 11  1  0
  2 12  1  0
  5 13  1  0
  6 14  1  0
  6 15  1  0
  7 16  1  0
  9 17  1  0
M  END
