
     RDKit          3D

 16 16  0  0  0  0  0  0  0  0999 V2000
    3.2545   -0.7425    1.0042 O   0  0  0  0  0  0  0  0  0  0  0  0
    2.8066    0.4931    0.5423 C   0  0  0  0  0  0  0  0  0  0  0  0
    1.4224    0.3714    0.1465 C   0  0  0  0  0  0  0  0  0  0  0  0
    0.2580    0.2731   -0.1982 C   0  0  0  0  0  0  0  0  0  0  0  0
   -1.1386    0.1441   -0.6357 C   0  0  0  0  0  0  0  0  0  0  0  0
   -1.4470    0.4621   -1.9519 O   0  0  0  0  0  0  0  0  0  0  0  0
   -1.9418   -0.9046   -0.0048 C   0  0  0  0  0  0  0  0  0  0  0  0
   -2.2050    0.4808    0.4296 C   0  0  0  0  0  0  0  0  0  0  0  0
    2.8005   -1.4707    0.5480 H   0  0  0  0  0  0  0  0  0  0  0  0
    2.8984    1.2184    1.3957 H   0  0  0  0  0  0  0  0  0  0  0  0
    3.4067    0.8842   -0.2830 H   0  0  0  0  0  0  0  0  0  0  0  0
   -0.9995   -0.1074   -2.5984 H   0  0  0  0  0  0  0  0  0  0  0  0
   -1.4771   -1.5968    0.7270 H   0  0  0  0  0  0  0  0  0  0  0  0
   -2.7585   -1.3794   -0.5958 H   0  0  0  0  0  0  0  0  0  0  0  0
   -3.0488    1.0673    0.0467 H   0  0  0  0  0  0  0  0  0  0  0  0
   -1.8307    0.8066    1.4278 H   0  0  0  0  0  0  0  0  0  0  0  0
  1  2  1  0
  2  3  1  0
  3  4  3  0
  4  5  1  0
  5  6  1  0
  5  7  1  0
  7  8  1  0
  8  5  1  0
  1  9  1  0
  2 10  1  0
  2 11  1  0
  6 12  1  0
  7 13  1  0
  7 14  1  0
  8 15  1  0
  8 16  1  0
M  END
