
     RDKit          3D

 18 18  0  0  0  0  0  0  0  0999 V2000
    3.5900    1.0975    0.8968 O   0  0  0  0  0  0  0  0  0  0  0  0
    3.0245   -0.1140    0.4955 C   0  0  0  0  0  0  0  0  0  0  0  0
    1.7509    0.1807   -0.1672 C   0  0  0  0  0  0  0  0  0  0  0  0
    0.6916    0.4256   -0.6947 C   0  0  0  0  0  0  0  0  0  0  0  0
   -0.6044    0.7503   -1.3332 C   0  0  0  0  0  0  0  0  0  0  0  0
   -1.6757    0.3820   -0.3617 C   0  0  0  0  0  0  0  0  0  0  0  0
   -1.7412   -1.0555    0.0621 C   0  0  0  0  0  0  0  0  0  0  0  0
   -2.8016   -0.4295   -0.8550 C   0  0  0  0  0  0  0  0  0  0  0  0
    4.2187    1.4162    0.2054 H   0  0  0  0  0  0  0  0  0  0  0  0
    2.8416   -0.7758    1.3652 H   0  0  0  0  0  0  0  0  0  0  0  0
    3.7398   -0.6236   -0.2102 H   0  0  0  0  0  0  0  0  0  0  0  0
   -0.7347    0.1503   -2.2533 H   0  0  0  0  0  0  0  0  0  0  0  0
   -0.6040    1.8483   -1.5498 H   0  0  0  0  0  0  0  0  0  0  0  0
   -1.9448    1.1025    0.4606 H   0  0  0  0  0  0  0  0  0  0  0  0
   -2.0362   -1.3504    1.0698 H   0  0  0  0  0  0  0  0  0  0  0  0
   -1.0541   -1.7896   -0.4248 H   0  0  0  0  0  0  0  0  0  0  0  0
   -2.8449   -0.8461   -1.8743 H   0  0  0  0  0  0  0  0  0  0  0  0
   -3.8157   -0.3691   -0.3629 H   0  0  0  0  0  0  0  0  0  0  0  0
  1  2  1  0
  2  3  1  0
  3  4  3  0
  4  5  1  0
  5  6  1  0
  6  7  1  0
  7  8  1  0
  8  6  1  0
  1  9  1  0
  2 10  1  0
  2 11  1  0
  5 12  1  0
  5 13  1  0
  6 14  1  0
  7 15  1  0
  7 16  1  0
  8 17  1  0
  8 18  1  0
M  END
