
     RDKit          3D

 19 19  0  0  0  0  0  0  0  0999 V2000
    2.6538   -2.7990    0.2005 O   0  0  0  0  0  0  0  0  0  0  0  0
    2.6688   -1.5266    0.7868 C   0  0  0  0  0  0  0  0  0  0  0  0
    1.4570   -0.7704    0.4533 C   0  0  0  0  0  0  0  0  0  0  0  0
    0.4414   -0.1487    0.1815 C   0  0  0  0  0  0  0  0  0  0  0  0
   -0.7738    0.6143   -0.1262 C   0  0  0  0  0  0  0  0  0  0  0  0
   -1.7340   -0.1404   -1.0183 C   0  0  0  0  0  0  0  0  0  0  0  0
   -2.1046   -1.3061   -0.3717 O   0  0  0  0  0  0  0  0  0  0  0  0
   -0.5350    2.0908   -0.5828 C   0  0  0  0  0  0  0  0  0  0  0  0
   -1.1987    1.7286    0.7162 C   0  0  0  0  0  0  0  0  0  0  0  0
    2.9518   -2.7496   -0.7476 H   0  0  0  0  0  0  0  0  0  0  0  0
    2.7817   -1.6708    1.8799 H   0  0  0  0  0  0  0  0  0  0  0  0
    3.5219   -0.9258    0.4176 H   0  0  0  0  0  0  0  0  0  0  0  0
   -1.1686   -0.4308   -1.9504 H   0  0  0  0  0  0  0  0  0  0  0  0
   -2.6282    0.4360   -1.2859 H   0  0  0  0  0  0  0  0  0  0  0  0
   -2.8952   -1.1876    0.2262 H   0  0  0  0  0  0  0  0  0  0  0  0
   -1.1284    2.4475   -1.4261 H   0  0  0  0  0  0  0  0  0  0  0  0
    0.5292    2.3926   -0.6054 H   0  0  0  0  0  0  0  0  0  0  0  0
   -0.5925    1.9227    1.6461 H   0  0  0  0  0  0  0  0  0  0  0  0
   -2.2467    2.0232    0.7934 H   0  0  0  0  0  0  0  0  0  0  0  0
  1  2  1  0
  2  3  1  0
  3  4  3  0
  4  5  1  0
  5  6  1  0
  6  7  1  0
  5  8  1  0
  8  9  1  0
  9  5  1  0
  1 10  1  0
  2 11  1  0
  2 12  1  0
  6 13  1  0
  6 14  1  0
  7 15  1  0
  8 16  1  0
  8 17  1  0
  9 18  1  0
  9 19  1  0
M  END
