
     RDKit          3D

 19 19  0  0  0  0  0  0  0  0999 V2000
    3.5142   -1.8343   -0.0734 O   0  0  0  0  0  0  0  0  0  0  0  0
    2.5271   -2.0101    0.9244 C   0  0  0  0  0  0  0  0  0  0  0  0
    1.2410   -1.4529    0.4688 C   0  0  0  0  0  0  0  0  0  0  0  0
    0.1822   -1.0082    0.0957 C   0  0  0  0  0  0  0  0  0  0  0  0
   -1.1051   -0.4412   -0.3649 C   0  0  0  0  0  0  0  0  0  0  0  0
   -1.2448    0.9132    0.2786 C   0  0  0  0  0  0  0  0  0  0  0  0
   -1.2476    0.8775    1.6759 O   0  0  0  0  0  0  0  0  0  0  0  0
   -0.6595    2.0672   -0.4409 C   0  0  0  0  0  0  0  0  0  0  0  0
   -2.1579    1.9238   -0.3494 C   0  0  0  0  0  0  0  0  0  0  0  0
    3.1567   -2.3648   -0.8554 H   0  0  0  0  0  0  0  0  0  0  0  0
    2.8938   -1.4079    1.7939 H   0  0  0  0  0  0  0  0  0  0  0  0
    2.4612   -3.0772    1.1572 H   0  0  0  0  0  0  0  0  0  0  0  0
   -1.1260   -0.3216   -1.4652 H   0  0  0  0  0  0  0  0  0  0  0  0
   -1.9594   -1.0513   -0.0405 H   0  0  0  0  0  0  0  0  0  0  0  0
   -0.7034    0.0883    1.9828 H   0  0  0  0  0  0  0  0  0  0  0  0
   -0.1935    1.8997   -1.4252 H   0  0  0  0  0  0  0  0  0  0  0  0
   -0.1826    2.8465    0.1665 H   0  0  0  0  0  0  0  0  0  0  0  0
   -2.6732    2.6701    0.3040 H   0  0  0  0  0  0  0  0  0  0  0  0
   -2.7230    1.6835   -1.2698 H   0  0  0  0  0  0  0  0  0  0  0  0
  1  2  1  0
  2  3  1  0
  3  4  3  0
  4  5  1  0
  5  6  1  0
  6  7  1  0
  6  8  1  0
  8  9  1  0
  9  6  1  0
  1 10  1  0
  2 11  1  0
  2 12  1  0
  5 13  1  0
  5 14  1  0
  7 15  1  0
  8 16  1  0
  8 17  1  0
  9 18  1  0
  9 19  1  0
M  END
