
     RDKit          3D

 17 17  0  0  0  0  0  0  0  0999 V2000
    3.8670    1.3754   -0.7231 O   0  0  0  0  0  0  0  0  0  0  0  0
    2.6917    1.5506   -1.4524 C   0  0  0  0  0  0  0  0  0  0  0  0
    1.5995    1.0063   -0.9656 C   0  0  0  0  0  0  0  0  0  0  0  0
    0.4729    0.4240   -0.4722 C   0  0  0  0  0  0  0  0  0  0  0  0
   -0.6352   -0.1692    0.0013 C   0  0  0  0  0  0  0  0  0  0  0  0
   -1.0639    0.1614    1.2819 O   0  0  0  0  0  0  0  0  0  0  0  0
   -2.2902   -0.6009    1.3151 C   0  0  0  0  0  0  0  0  0  0  0  0
   -1.8409   -1.8945    0.6996 C   0  0  0  0  0  0  0  0  0  0  0  0
   -0.7190   -1.5428   -0.0553 O   0  0  0  0  0  0  0  0  0  0  0  0
    3.7352    1.1377    0.2101 H   0  0  0  0  0  0  0  0  0  0  0  0
    2.5880    2.6978   -1.6281 H   0  0  0  0  0  0  0  0  0  0  0  0
    2.9220    1.2461   -2.5564 H   0  0  0  0  0  0  0  0  0  0  0  0
   -1.5853    0.2544   -0.6295 H   0  0  0  0  0  0  0  0  0  0  0  0
   -2.7169   -0.6588    2.2990 H   0  0  0  0  0  0  0  0  0  0  0  0
   -2.9559   -0.0523    0.5842 H   0  0  0  0  0  0  0  0  0  0  0  0
   -1.4279   -2.5502    1.5163 H   0  0  0  0  0  0  0  0  0  0  0  0
   -2.6413   -2.3848    0.1055 H   0  0  0  0  0  0  0  0  0  0  0  0
  1  2  1  0
  2  3  1  0
  3  4  3  0
  4  5  1  0
  5  6  1  0
  6  7  1  0
  7  8  1  0
  8  9  1  0
  9  5  1  0
  1 10  1  0
  2 11  1  0
  2 12  1  0
  5 13  1  0
  7 14  1  0
  7 15  1  0
  8 16  1  0
  8 17  1  0
M  END
