
     RDKit          3D

 18 17  0  0  0  0  0  0  0  0999 V2000
    3.6870    0.7934   -0.1053 O   0  0  0  0  0  0  0  0  0  0  0  0
    2.6335    1.4626    0.6875 C   0  0  0  0  0  0  0  0  0  0  0  0
    1.4560    1.0356    0.1595 C   0  0  0  0  0  0  0  0  0  0  0  0
    0.1794    0.5536   -0.4182 C   0  0  0  0  0  0  0  0  0  0  0  0
   -1.2018    0.0094   -1.0646 C   0  0  0  0  0  0  0  0  0  0  0  0
   -1.1970   -1.3633   -0.5502 C   0  0  0  0  0  0  0  0  0  0  0  0
   -2.2291   -1.3738    0.6783 C   0  0  0  0  0  0  0  0  0  0  0  0
   -1.7448   -0.2303    1.4438 O   0  0  0  0  0  0  0  0  0  0  0  0
    4.5207    1.1663    0.2045 H   0  0  0  0  0  0  0  0  0  0  0  0
    2.7194    2.5929    0.5001 H   0  0  0  0  0  0  0  0  0  0  0  0
    2.8658    1.0851    1.6347 H   0  0  0  0  0  0  0  0  0  0  0  0
   -1.7633    0.8639   -0.8277 H   0  0  0  0  0  0  0  0  0  0  0  0
   -0.8205    0.0662   -2.1502 H   0  0  0  0  0  0  0  0  0  0  0  0
   -1.4940   -2.2039   -1.2503 H   0  0  0  0  0  0  0  0  0  0  0  0
   -0.2272   -1.6819   -0.0129 H   0  0  0  0  0  0  0  0  0  0  0  0
   -2.1596   -2.2339    1.2411 H   0  0  0  0  0  0  0  0  0  0  0  0
   -3.1881   -1.1546    0.2185 H   0  0  0  0  0  0  0  0  0  0  0  0
   -2.0363    0.6126    0.8140 H   0  0  0  0  0  0  0  0  0  0  0  0
  1  2  1  0
  2  3  1  0
  3  4  3  0
  4  5  1  0
  5  6  1  0
  6  7  1  0
  7  8  1  0
  1  9  1  0
  2 10  1  0
  2 11  1  0
  5 12  1  0
  5 13  1  0
  6 14  1  0
  6 15  1  0
  7 16  1  0
  7 17  1  0
  8 18  1  0
M  END
