
     RDKit          3D

 19 19  0  0  0  0  0  0  0  0999 V2000
    4.2874    0.7677    0.2157 O   0  0  0  0  0  0  0  0  0  0  0  0
    3.5492   -0.3385   -0.2440 C   0  0  0  0  0  0  0  0  0  0  0  0
    2.1137   -0.0515   -0.2647 C   0  0  0  0  0  0  0  0  0  0  0  0
    0.9339    0.1692   -0.2670 C   0  0  0  0  0  0  0  0  0  0  0  0
   -0.4794    0.4301   -0.2850 C   0  0  0  0  0  0  0  0  0  0  0  0
   -1.2280   -0.8496   -0.5413 C   0  0  0  0  0  0  0  0  0  0  0  0
   -2.5535   -0.5963    0.1582 C   0  0  0  0  0  0  0  0  0  0  0  0
   -2.3600    0.8133    0.6783 C   0  0  0  0  0  0  0  0  0  0  0  0
   -0.9833    0.7880    0.9864 O   0  0  0  0  0  0  0  0  0  0  0  0
    3.6295    1.4832    0.4009 H   0  0  0  0  0  0  0  0  0  0  0  0
    3.7278   -1.1808    0.4573 H   0  0  0  0  0  0  0  0  0  0  0  0
    3.9109   -0.5924   -1.2818 H   0  0  0  0  0  0  0  0  0  0  0  0
   -0.8031    1.2145   -0.9709 H   0  0  0  0  0  0  0  0  0  0  0  0
   -1.4417   -0.9613   -1.6293 H   0  0  0  0  0  0  0  0  0  0  0  0
   -0.7273   -1.7323   -0.1149 H   0  0  0  0  0  0  0  0  0  0  0  0
   -2.7127   -1.2796    1.0117 H   0  0  0  0  0  0  0  0  0  0  0  0
   -3.4031   -0.6546   -0.5548 H   0  0  0  0  0  0  0  0  0  0  0  0
   -2.9803    1.0447    1.5413 H   0  0  0  0  0  0  0  0  0  0  0  0
   -2.4799    1.5263   -0.1751 H   0  0  0  0  0  0  0  0  0  0  0  0
  1  2  1  0
  2  3  1  0
  3  4  3  0
  4  5  1  0
  5  6  1  0
  6  7  1  0
  7  8  1  0
  8  9  1  0
  9  5  1  0
  1 10  1  0
  2 11  1  0
  2 12  1  0
  5 13  1  0
  6 14  1  0
  6 15  1  0
  7 16  1  0
  7 17  1  0
  8 18  1  0
  8 19  1  0
M  END
