
     RDKit          3D

 19 20  0  0  0  0  0  0  0  0999 V2000
    2.8824   -0.9144   -0.3019 O   0  0  0  0  0  0  0  0  0  0  0  0
    1.7423   -0.5484    0.3931 C   0  0  0  0  0  0  0  0  0  0  0  0
    0.8510    0.2687   -0.5226 C   0  0  0  0  0  0  0  0  0  0  0  0
    1.5152    1.4211   -0.9569 O   0  0  0  0  0  0  0  0  0  0  0  0
   -0.4633    0.5650    0.1209 C   0  0  0  0  0  0  0  0  0  0  0  0
   -1.2074   -0.6855    0.4652 C   0  0  0  0  0  0  0  0  0  0  0  0
   -2.4802    0.0810    0.3294 C   0  0  0  0  0  0  0  0  0  0  0  0
   -1.6023    0.4351   -0.8269 C   0  0  0  0  0  0  0  0  0  0  0  0
   -1.2911   -0.9187   -0.9006 O   0  0  0  0  0  0  0  0  0  0  0  0
    3.5816   -1.1675    0.3688 H   0  0  0  0  0  0  0  0  0  0  0  0
    2.0115    0.0844    1.2676 H   0  0  0  0  0  0  0  0  0  0  0  0
    1.2028   -1.4572    0.6874 H   0  0  0  0  0  0  0  0  0  0  0  0
    0.6603   -0.3752   -1.4140 H   0  0  0  0  0  0  0  0  0  0  0  0
    1.9253    1.8724   -0.1808 H   0  0  0  0  0  0  0  0  0  0  0  0
   -0.4956    1.3817    0.8534 H   0  0  0  0  0  0  0  0  0  0  0  0
   -0.9690   -1.3609    1.1762 H   0  0  0  0  0  0  0  0  0  0  0  0
   -3.3246   -0.5597   -0.0169 H   0  0  0  0  0  0  0  0  0  0  0  0
   -2.7062    0.8444    1.0631 H   0  0  0  0  0  0  0  0  0  0  0  0
   -1.8325    1.0339   -1.6046 H   0  0  0  0  0  0  0  0  0  0  0  0
  1  2  1  0
  2  3  1  0
  3  4  1  0
  3  5  1  0
  5  6  1  0
  6  7  1  0
  7  8  1  0
  8  9  1  0
  8  5  1  0
  9  6  1  0
  1 10  1  0
  2 11  1  0
  2 12  1  0
  3 13  1  0
  4 14  1  0
  5 15  1  0
  6 16  1  0
  7 17  1  0
  7 18  1  0
  8 19  1  0
M  END
