
     RDKit          3D

 19 19  0  0  0  0  0  0  0  0999 V2000
    2.9278   -0.5403   -0.2311 O   0  0  0  0  0  0  0  0  0  0  0  0
    1.8132   -0.3646    0.5982 C   0  0  0  0  0  0  0  0  0  0  0  0
    0.5947   -0.6588   -0.2516 C   0  0  0  0  0  0  0  0  0  0  0  0
    0.5200    0.2031   -1.3437 O   0  0  0  0  0  0  0  0  0  0  0  0
   -0.6823   -0.5177    0.5266 C   0  0  0  0  0  0  0  0  0  0  0  0
   -1.8291   -0.6421   -0.4772 C   0  0  0  0  0  0  0  0  0  0  0  0
   -1.8324    0.6293   -1.0339 O   0  0  0  0  0  0  0  0  0  0  0  0
   -1.4626    1.4963   -0.0306 C   0  0  0  0  0  0  0  0  0  0  0  0
   -0.8712    0.7830    0.9814 O   0  0  0  0  0  0  0  0  0  0  0  0
    3.3868    0.3180   -0.4221 H   0  0  0  0  0  0  0  0  0  0  0  0
    1.7781    0.6170    1.0697 H   0  0  0  0  0  0  0  0  0  0  0  0
    1.8817   -1.1656    1.3683 H   0  0  0  0  0  0  0  0  0  0  0  0
    0.6526   -1.6937   -0.6308 H   0  0  0  0  0  0  0  0  0  0  0  0
    1.3037    0.7825   -1.3685 H   0  0  0  0  0  0  0  0  0  0  0  0
   -0.8218   -1.2616    1.3124 H   0  0  0  0  0  0  0  0  0  0  0  0
   -1.5771   -1.3847   -1.2727 H   0  0  0  0  0  0  0  0  0  0  0  0
   -2.7802   -0.9008    0.0250 H   0  0  0  0  0  0  0  0  0  0  0  0
   -2.3182    2.1218    0.3087 H   0  0  0  0  0  0  0  0  0  0  0  0
   -0.6838    2.1789   -0.4663 H   0  0  0  0  0  0  0  0  0  0  0  0
  1  2  1  0
  2  3  1  0
  3  4  1  0
  3  5  1  0
  5  6  1  0
  6  7  1  0
  7  8  1  0
  8  9  1  0
  9  5  1  0
  1 10  1  0
  2 11  1  0
  2 12  1  0
  3 13  1  0
  4 14  1  0
  5 15  1  0
  6 16  1  0
  6 17  1  0
  8 18  1  0
  8 19  1  0
M  END
