
     RDKit          3D

 21 21  0  0  0  0  0  0  0  0999 V2000
   -1.5413   -0.5459    1.8040 O   0  0  0  0  0  0  0  0  0  0  0  0
   -1.9495   -0.0378    0.5803 C   0  0  0  0  0  0  0  0  0  0  0  0
   -0.7648   -0.2266   -0.3768 C   0  0  0  0  0  0  0  0  0  0  0  0
   -1.2400    0.2247   -1.7325 C   0  0  0  0  0  0  0  0  0  0  0  0
   -2.3614   -0.5451   -2.0434 O   0  0  0  0  0  0  0  0  0  0  0  0
    0.3416    0.4425    0.0721 O   0  0  0  0  0  0  0  0  0  0  0  0
    1.4411   -0.3588    0.3180 C   0  0  0  0  0  0  0  0  0  0  0  0
    2.3877    0.1202    1.4081 C   0  0  0  0  0  0  0  0  0  0  0  0
    2.7637    0.3217   -0.0194 C   0  0  0  0  0  0  0  0  0  0  0  0
   -1.1169    0.1993    2.3018 H   0  0  0  0  0  0  0  0  0  0  0  0
   -2.2054    1.0363    0.6094 H   0  0  0  0  0  0  0  0  0  0  0  0
   -2.7977   -0.6570    0.2303 H   0  0  0  0  0  0  0  0  0  0  0  0
   -0.5224   -1.3073   -0.4460 H   0  0  0  0  0  0  0  0  0  0  0  0
   -0.5015    0.1123   -2.5266 H   0  0  0  0  0  0  0  0  0  0  0  0
   -1.6069    1.2744   -1.6153 H   0  0  0  0  0  0  0  0  0  0  0  0
   -2.9814   -0.0043   -2.5942 H   0  0  0  0  0  0  0  0  0  0  0  0
    1.3587   -1.4404    0.1437 H   0  0  0  0  0  0  0  0  0  0  0  0
    2.0352    0.9966    2.0073 H   0  0  0  0  0  0  0  0  0  0  0  0
    2.9113   -0.6754    1.9767 H   0  0  0  0  0  0  0  0  0  0  0  0
    2.7639    1.3587   -0.3716 H   0  0  0  0  0  0  0  0  0  0  0  0
    3.5862   -0.2882   -0.4311 H   0  0  0  0  0  0  0  0  0  0  0  0
  1  2  1  0
  2  3  1  0
  3  4  1  0
  4  5  1  0
  3  6  1  0
  6  7  1  0
  7  8  1  0
  8  9  1  0
  9  7  1  0
  1 10  1  0
  2 11  1  0
  2 12  1  0
  3 13  1  0
  4 14  1  0
  4 15  1  0
  5 16  1  0
  7 17  1  0
  8 18  1  0
  8 19  1  0
  9 20  1  0
  9 21  1  0
M  END
