
     RDKit          3D

 21 21  0  0  0  0  0  0  0  0999 V2000
   -2.7123   -1.1457   -0.4280 O   0  0  0  0  0  0  0  0  0  0  0  0
   -1.3191   -1.2273   -0.4522 C   0  0  0  0  0  0  0  0  0  0  0  0
   -0.7058    0.1447   -0.5682 C   0  0  0  0  0  0  0  0  0  0  0  0
   -1.1221    0.9772    0.6067 C   0  0  0  0  0  0  0  0  0  0  0  0
   -0.5528    2.2458    0.4961 O   0  0  0  0  0  0  0  0  0  0  0  0
    0.7807    0.0112   -0.7049 C   0  0  0  0  0  0  0  0  0  0  0  0
    1.4952   -0.6658    0.4197 C   0  0  0  0  0  0  0  0  0  0  0  0
    2.5681    0.2983   -0.0569 C   0  0  0  0  0  0  0  0  0  0  0  0
    1.5216    1.1585   -0.4244 O   0  0  0  0  0  0  0  0  0  0  0  0
   -3.0033   -1.2323    0.4954 H   0  0  0  0  0  0  0  0  0  0  0  0
   -1.0648   -1.8498   -1.3389 H   0  0  0  0  0  0  0  0  0  0  0  0
   -0.9659   -1.7302    0.4517 H   0  0  0  0  0  0  0  0  0  0  0  0
   -1.0886    0.6192   -1.4999 H   0  0  0  0  0  0  0  0  0  0  0  0
   -2.2321    1.0258    0.6012 H   0  0  0  0  0  0  0  0  0  0  0  0
   -0.8432    0.4736    1.5621 H   0  0  0  0  0  0  0  0  0  0  0  0
   -1.0301    2.9168    1.0180 H   0  0  0  0  0  0  0  0  0  0  0  0
    1.0503   -0.4403   -1.6748 H   0  0  0  0  0  0  0  0  0  0  0  0
    1.1446   -0.4265    1.4318 H   0  0  0  0  0  0  0  0  0  0  0  0
    1.7851   -1.7243    0.2329 H   0  0  0  0  0  0  0  0  0  0  0  0
    3.0922   -0.1409   -0.9152 H   0  0  0  0  0  0  0  0  0  0  0  0
    3.2022    0.7122    0.7480 H   0  0  0  0  0  0  0  0  0  0  0  0
  1  2  1  0
  2  3  1  0
  3  4  1  0
  4  5  1  0
  3  6  1  0
  6  7  1  0
  7  8  1  0
  8  9  1  0
  9  6  1  0
  1 10  1  0
  2 11  1  0
  2 12  1  0
  3 13  1  0
  4 14  1  0
  4 15  1  0
  5 16  1  0
  6 17  1  0
  7 18  1  0
  7 19  1  0
  8 20  1  0
  8 21  1  0
M  END
