
     RDKit          3D

 21 21  0  0  0  0  0  0  0  0999 V2000
    2.5449    1.3848   -0.3170 O   0  0  0  0  0  0  0  0  0  0  0  0
    2.1707    0.2263    0.3165 C   0  0  0  0  0  0  0  0  0  0  0  0
    1.0699   -0.5143   -0.3935 C   0  0  0  0  0  0  0  0  0  0  0  0
    0.7431   -1.6592    0.2883 O   0  0  0  0  0  0  0  0  0  0  0  0
   -0.1195    0.3614   -0.6928 C   0  0  0  0  0  0  0  0  0  0  0  0
   -0.8385    0.7974    0.5528 C   0  0  0  0  0  0  0  0  0  0  0  0
   -2.2905    0.4641    0.1846 C   0  0  0  0  0  0  0  0  0  0  0  0
   -2.0373   -0.7916   -0.6590 C   0  0  0  0  0  0  0  0  0  0  0  0
   -1.0071   -0.3611   -1.4657 O   0  0  0  0  0  0  0  0  0  0  0  0
    3.1193    1.1362   -1.0952 H   0  0  0  0  0  0  0  0  0  0  0  0
    1.9586    0.4028    1.3822 H   0  0  0  0  0  0  0  0  0  0  0  0
    3.0695   -0.4570    0.2973 H   0  0  0  0  0  0  0  0  0  0  0  0
    1.4899   -0.8269   -1.3879 H   0  0  0  0  0  0  0  0  0  0  0  0
    1.4231   -2.3617    0.1177 H   0  0  0  0  0  0  0  0  0  0  0  0
    0.2531    1.2502   -1.2548 H   0  0  0  0  0  0  0  0  0  0  0  0
   -0.5273    0.2348    1.4559 H   0  0  0  0  0  0  0  0  0  0  0  0
   -0.7631    1.8727    0.7376 H   0  0  0  0  0  0  0  0  0  0  0  0
   -2.6771    1.2189   -0.5089 H   0  0  0  0  0  0  0  0  0  0  0  0
   -2.9005    0.2640    1.0610 H   0  0  0  0  0  0  0  0  0  0  0  0
   -2.9091   -0.9971   -1.3139 H   0  0  0  0  0  0  0  0  0  0  0  0
   -1.7723   -1.6446   -0.0158 H   0  0  0  0  0  0  0  0  0  0  0  0
  1  2  1  0
  2  3  1  0
  3  4  1  0
  3  5  1  0
  5  6  1  0
  6  7  1  0
  7  8  1  0
  8  9  1  0
  9  5  1  0
  1 10  1  0
  2 11  1  0
  2 12  1  0
  3 13  1  0
  4 14  1  0
  5 15  1  0
  6 16  1  0
  6 17  1  0
  7 18  1  0
  7 19  1  0
  8 20  1  0
  8 21  1  0
M  END
