
     RDKit          3D

 21 21  0  0  0  0  0  0  0  0999 V2000
   -3.5581    0.0970   -0.3536 O   0  0  0  0  0  0  0  0  0  0  0  0
   -2.4391    0.5510    0.3402 C   0  0  0  0  0  0  0  0  0  0  0  0
   -1.2099   -0.3095    0.0239 C   0  0  0  0  0  0  0  0  0  0  0  0
   -0.9462   -0.2527   -1.3231 O   0  0  0  0  0  0  0  0  0  0  0  0
   -0.0736    0.2462    0.8062 C   0  0  0  0  0  0  0  0  0  0  0  0
    1.2270   -0.4534    0.6396 C   0  0  0  0  0  0  0  0  0  0  0  0
    1.8221   -0.5145   -0.7281 C   0  0  0  0  0  0  0  0  0  0  0  0
    3.0683    0.1199   -0.1351 C   0  0  0  0  0  0  0  0  0  0  0  0
    2.2854    0.4176    0.9920 O   0  0  0  0  0  0  0  0  0  0  0  0
   -3.8234    0.7155   -1.0913 H   0  0  0  0  0  0  0  0  0  0  0  0
   -2.2715    1.6026    0.0109 H   0  0  0  0  0  0  0  0  0  0  0  0
   -2.6101    0.5702    1.4196 H   0  0  0  0  0  0  0  0  0  0  0  0
   -1.4684   -1.3551    0.2750 H   0  0  0  0  0  0  0  0  0  0  0  0
   -1.7096   -0.5102   -1.8949 H   0  0  0  0  0  0  0  0  0  0  0  0
    0.0545    1.3087    0.5167 H   0  0  0  0  0  0  0  0  0  0  0  0
   -0.3371    0.2530    1.8831 H   0  0  0  0  0  0  0  0  0  0  0  0
    1.3224   -1.3958    1.2082 H   0  0  0  0  0  0  0  0  0  0  0  0
    1.3579    0.0540   -1.5286 H   0  0  0  0  0  0  0  0  0  0  0  0
    2.0874   -1.5445   -1.0744 H   0  0  0  0  0  0  0  0  0  0  0  0
    3.8608   -0.5861    0.1573 H   0  0  0  0  0  0  0  0  0  0  0  0
    3.3612    0.9862   -0.7434 H   0  0  0  0  0  0  0  0  0  0  0  0
  1  2  1  0
  2  3  1  0
  3  4  1  0
  3  5  1  0
  5  6  1  0
  6  7  1  0
  7  8  1  0
  8  9  1  0
  9  6  1  0
  1 10  1  0
  2 11  1  0
  2 12  1  0
  3 13  1  0
  4 14  1  0
  5 15  1  0
  5 16  1  0
  6 17  1  0
  7 18  1  0
  7 19  1  0
  8 20  1  0
  8 21  1  0
M  END
