
     RDKit          3D

 19 20  0  0  0  0  0  0  0  0999 V2000
   -3.0207   -0.2005    0.1277 O   0  0  0  0  0  0  0  0  0  0  0  0
   -1.6686   -0.5183    0.2480 C   0  0  0  0  0  0  0  0  0  0  0  0
   -0.8131    0.3896   -0.6034 C   0  0  0  0  0  0  0  0  0  0  0  0
   -0.9872    1.6951   -0.2119 O   0  0  0  0  0  0  0  0  0  0  0  0
    0.6346    0.0538   -0.5657 C   0  0  0  0  0  0  0  0  0  0  0  0
    1.6043    1.1812   -0.3480 C   0  0  0  0  0  0  0  0  0  0  0  0
    1.4572    0.0667    0.6365 C   0  0  0  0  0  0  0  0  0  0  0  0
    1.8949   -1.3173    0.2174 C   0  0  0  0  0  0  0  0  0  0  0  0
    1.0959   -1.1994   -0.9124 O   0  0  0  0  0  0  0  0  0  0  0  0
   -3.5295   -0.6731    0.8226 H   0  0  0  0  0  0  0  0  0  0  0  0
   -1.5070   -1.5882   -0.0057 H   0  0  0  0  0  0  0  0  0  0  0  0
   -1.4225   -0.4113    1.3303 H   0  0  0  0  0  0  0  0  0  0  0  0
   -1.1722    0.3023   -1.6512 H   0  0  0  0  0  0  0  0  0  0  0  0
   -1.7985    2.1246   -0.5986 H   0  0  0  0  0  0  0  0  0  0  0  0
    2.4379    1.1964   -1.0753 H   0  0  0  0  0  0  0  0  0  0  0  0
    1.1604    2.1330   -0.0368 H   0  0  0  0  0  0  0  0  0  0  0  0
    1.0959    0.2456    1.6533 H   0  0  0  0  0  0  0  0  0  0  0  0
    2.9722   -1.3711    0.0561 H   0  0  0  0  0  0  0  0  0  0  0  0
    1.5660   -2.1092    0.9171 H   0  0  0  0  0  0  0  0  0  0  0  0
  1  2  1  0
  2  3  1  0
  3  4  1  0
  3  5  1  0
  5  6  1  0
  6  7  1  0
  7  8  1  0
  8  9  1  0
  7  5  1  0
  9  5  1  0
  1 10  1  0
  2 11  1  0
  2 12  1  0
  3 13  1  0
  4 14  1  0
  6 15  1  0
  6 16  1  0
  7 17  1  0
  8 18  1  0
  8 19  1  0
M  END
