
     RDKit          3D

 21 22  0  0  0  0  0  0  0  0999 V2000
    3.2639    0.4239    0.0979 O   0  0  0  0  0  0  0  0  0  0  0  0
    1.9826    0.6547    0.5945 C   0  0  0  0  0  0  0  0  0  0  0  0
    1.0150   -0.2519   -0.0765 C   0  0  0  0  0  0  0  0  0  0  0  0
    1.0163   -0.0245   -1.4522 O   0  0  0  0  0  0  0  0  0  0  0  0
   -0.3837   -0.1695    0.4222 C   0  0  0  0  0  0  0  0  0  0  0  0
   -1.2047    1.0579    0.3884 C   0  0  0  0  0  0  0  0  0  0  0  0
   -2.0836    0.3986   -0.6746 C   0  0  0  0  0  0  0  0  0  0  0  0
   -1.4446   -0.9181   -0.4117 C   0  0  0  0  0  0  0  0  0  0  0  0
   -1.0625   -1.4007    0.9133 C   0  0  0  0  0  0  0  0  0  0  0  0
    3.4083    0.7850   -0.8017 H   0  0  0  0  0  0  0  0  0  0  0  0
    2.0368    0.4763    1.6890 H   0  0  0  0  0  0  0  0  0  0  0  0
    1.7787    1.7284    0.4627 H   0  0  0  0  0  0  0  0  0  0  0  0
    1.3695   -1.2964    0.0645 H   0  0  0  0  0  0  0  0  0  0  0  0
    1.0249   -0.8717   -1.9708 H   0  0  0  0  0  0  0  0  0  0  0  0
   -1.8126    1.1476    1.3353 H   0  0  0  0  0  0  0  0  0  0  0  0
   -0.7641    2.0039    0.1163 H   0  0  0  0  0  0  0  0  0  0  0  0
   -1.7479    0.8093   -1.6724 H   0  0  0  0  0  0  0  0  0  0  0  0
   -3.1648    0.4922   -0.5039 H   0  0  0  0  0  0  0  0  0  0  0  0
   -1.0821   -1.4822   -1.2941 H   0  0  0  0  0  0  0  0  0  0  0  0
   -0.4350   -2.2953    0.9660 H   0  0  0  0  0  0  0  0  0  0  0  0
   -1.7103   -1.2675    1.8077 H   0  0  0  0  0  0  0  0  0  0  0  0
  1  2  1  0
  2  3  1  0
  3  4  1  0
  3  5  1  0
  5  6  1  0
  6  7  1  0
  7  8  1  0
  8  9  1  0
  8  5  1  0
  9  5  1  0
  1 10  1  0
  2 11  1  0
  2 12  1  0
  3 13  1  0
  4 14  1  0
  6 15  1  0
  6 16  1  0
  7 17  1  0
  7 18  1  0
  8 19  1  0
  9 20  1  0
  9 21  1  0
M  END
