
     RDKit          3D

 21 21  0  0  0  0  0  0  0  0999 V2000
    1.7856    1.7197    0.2621 O   0  0  0  0  0  0  0  0  0  0  0  0
    2.1046    0.3826    0.2941 C   0  0  0  0  0  0  0  0  0  0  0  0
    0.9557   -0.4988    0.7402 C   0  0  0  0  0  0  0  0  0  0  0  0
    1.4728   -1.8168    0.7084 O   0  0  0  0  0  0  0  0  0  0  0  0
   -0.1975   -0.4635   -0.2299 C   0  0  0  0  0  0  0  0  0  0  0  0
   -0.7767    0.8982   -0.4182 C   0  0  0  0  0  0  0  0  0  0  0  0
   -2.2763    0.6456   -0.3675 C   0  0  0  0  0  0  0  0  0  0  0  0
   -2.4651   -0.7022   -0.2298 O   0  0  0  0  0  0  0  0  0  0  0  0
   -1.3564   -1.2080    0.4339 C   0  0  0  0  0  0  0  0  0  0  0  0
    2.4244    2.1668   -0.3492 H   0  0  0  0  0  0  0  0  0  0  0  0
    2.3983   -0.0033   -0.7252 H   0  0  0  0  0  0  0  0  0  0  0  0
    2.9667    0.1530    0.9611 H   0  0  0  0  0  0  0  0  0  0  0  0
    0.6508   -0.2588    1.7629 H   0  0  0  0  0  0  0  0  0  0  0  0
    1.4680   -2.0647   -0.2561 H   0  0  0  0  0  0  0  0  0  0  0  0
    0.0799   -0.9316   -1.1835 H   0  0  0  0  0  0  0  0  0  0  0  0
   -0.5324    1.3359   -1.4118 H   0  0  0  0  0  0  0  0  0  0  0  0
   -0.5455    1.6029    0.3838 H   0  0  0  0  0  0  0  0  0  0  0  0
   -2.7694    1.2368    0.4383 H   0  0  0  0  0  0  0  0  0  0  0  0
   -2.7674    0.9556   -1.3241 H   0  0  0  0  0  0  0  0  0  0  0  0
   -1.3803   -0.8624    1.4842 H   0  0  0  0  0  0  0  0  0  0  0  0
   -1.2398   -2.2869    0.3186 H   0  0  0  0  0  0  0  0  0  0  0  0
  1  2  1  0
  2  3  1  0
  3  4  1  0
  3  5  1  0
  5  6  1  0
  6  7  1  0
  7  8  1  0
  8  9  1  0
  9  5  1  0
  1 10  1  0
  2 11  1  0
  2 12  1  0
  3 13  1  0
  4 14  1  0
  5 15  1  0
  6 16  1  0
  6 17  1  0
  7 18  1  0
  7 19  1  0
  9 20  1  0
  9 21  1  0
M  END
