
     RDKit          3D

 19 19  0  0  0  0  0  0  0  0999 V2000
   -1.6510   -1.3331   -0.7432 O   0  0  0  0  0  0  0  0  0  0  0  0
   -1.9080   -0.0836   -0.2040 C   0  0  0  0  0  0  0  0  0  0  0  0
   -0.7105    0.3298    0.6054 C   0  0  0  0  0  0  0  0  0  0  0  0
   -0.8779    1.5845    1.1912 O   0  0  0  0  0  0  0  0  0  0  0  0
    0.5430    0.2534   -0.2252 C   0  0  0  0  0  0  0  0  0  0  0  0
    1.0867   -1.1349   -0.4257 C   0  0  0  0  0  0  0  0  0  0  0  0
    2.4568   -1.0254   -0.6612 O   0  0  0  0  0  0  0  0  0  0  0  0
    1.4419    1.4032   -0.1712 C   0  0  0  0  0  0  0  0  0  0  0  0
    0.7216    1.0998   -1.3026 O   0  0  0  0  0  0  0  0  0  0  0  0
   -2.4270   -1.9458   -0.5823 H   0  0  0  0  0  0  0  0  0  0  0  0
   -2.0182    0.6171   -1.0685 H   0  0  0  0  0  0  0  0  0  0  0  0
   -2.8156   -0.0787    0.4352 H   0  0  0  0  0  0  0  0  0  0  0  0
   -0.5730   -0.3864    1.4538 H   0  0  0  0  0  0  0  0  0  0  0  0
   -1.2681    1.4964    2.0972 H   0  0  0  0  0  0  0  0  0  0  0  0
    0.6105   -1.5814   -1.3324 H   0  0  0  0  0  0  0  0  0  0  0  0
    0.8869   -1.7853    0.4529 H   0  0  0  0  0  0  0  0  0  0  0  0
    2.8867   -0.9315    0.2262 H   0  0  0  0  0  0  0  0  0  0  0  0
    1.0876    2.3184    0.3602 H   0  0  0  0  0  0  0  0  0  0  0  0
    2.5276    1.1836   -0.1058 H   0  0  0  0  0  0  0  0  0  0  0  0
  1  2  1  0
  2  3  1  0
  3  4  1  0
  3  5  1  0
  5  6  1  0
  6  7  1  0
  5  8  1  0
  8  9  1  0
  9  5  1  0
  1 10  1  0
  2 11  1  0
  2 12  1  0
  3 13  1  0
  4 14  1  0
  6 15  1  0
  6 16  1  0
  7 17  1  0
  8 18  1  0
  8 19  1  0
M  END
