
     RDKit          3D

 23 23  0  0  0  0  0  0  0  0999 V2000
   -1.1861    2.4087   -0.5659 O   0  0  0  0  0  0  0  0  0  0  0  0
   -1.6275    1.1770   -0.1183 C   0  0  0  0  0  0  0  0  0  0  0  0
   -0.7989    0.0305   -0.6189 C   0  0  0  0  0  0  0  0  0  0  0  0
   -1.3428   -1.2443   -0.0911 C   0  0  0  0  0  0  0  0  0  0  0  0
   -1.3362   -1.2805    1.2996 O   0  0  0  0  0  0  0  0  0  0  0  0
    0.6366    0.2820   -0.4073 C   0  0  0  0  0  0  0  0  0  0  0  0
    1.6101   -0.7716   -0.8537 C   0  0  0  0  0  0  0  0  0  0  0  0
    2.5156   -0.2795    0.2870 C   0  0  0  0  0  0  0  0  0  0  0  0
    1.2129    0.1811    0.9630 C   0  0  0  0  0  0  0  0  0  0  0  0
   -1.5171    3.0838    0.0851 H   0  0  0  0  0  0  0  0  0  0  0  0
   -2.7052    1.0939   -0.4381 H   0  0  0  0  0  0  0  0  0  0  0  0
   -1.6539    1.1970    0.9915 H   0  0  0  0  0  0  0  0  0  0  0  0
   -0.9624    0.0081   -1.7388 H   0  0  0  0  0  0  0  0  0  0  0  0
   -0.8956   -2.1532   -0.5394 H   0  0  0  0  0  0  0  0  0  0  0  0
   -2.4316   -1.2840   -0.3959 H   0  0  0  0  0  0  0  0  0  0  0  0
   -2.2455   -1.2487    1.6945 H   0  0  0  0  0  0  0  0  0  0  0  0
    0.9267    1.2583   -0.8725 H   0  0  0  0  0  0  0  0  0  0  0  0
    1.3407   -1.8166   -0.6475 H   0  0  0  0  0  0  0  0  0  0  0  0
    2.0443   -0.6616   -1.8503 H   0  0  0  0  0  0  0  0  0  0  0  0
    3.1222    0.5603   -0.0977 H   0  0  0  0  0  0  0  0  0  0  0  0
    3.0424   -1.0741    0.8097 H   0  0  0  0  0  0  0  0  0  0  0  0
    0.8749   -0.6196    1.6206 H   0  0  0  0  0  0  0  0  0  0  0  0
    1.3767    1.1530    1.4845 H   0  0  0  0  0  0  0  0  0  0  0  0
  1  2  1  0
  2  3  1  0
  3  4  1  0
  4  5  1  0
  3  6  1  0
  6  7  1  0
  7  8  1  0
  8  9  1  0
  9  6  1  0
  1 10  1  0
  2 11  1  0
  2 12  1  0
  3 13  1  0
  4 14  1  0
  4 15  1  0
  5 16  1  0
  6 17  1  0
  7 18  1  0
  7 19  1  0
  8 20  1  0
  8 21  1  0
  9 22  1  0
  9 23  1  0
M  END
