
     RDKit          3D

 21 21  0  0  0  0  0  0  0  0999 V2000
    3.0372    0.2059   -0.9099 O   0  0  0  0  0  0  0  0  0  0  0  0
    2.3831    0.4062    0.2957 C   0  0  0  0  0  0  0  0  0  0  0  0
    1.0397   -0.2541    0.3526 C   0  0  0  0  0  0  0  0  0  0  0  0
    0.4697    0.0034    1.5904 O   0  0  0  0  0  0  0  0  0  0  0  0
    0.1016    0.1778   -0.7272 C   0  0  0  0  0  0  0  0  0  0  0  0
   -1.2062   -0.5883   -0.5170 C   0  0  0  0  0  0  0  0  0  0  0  0
   -1.8625   -0.3356    0.8114 C   0  0  0  0  0  0  0  0  0  0  0  0
   -3.1052   -0.4176    0.1372 O   0  0  0  0  0  0  0  0  0  0  0  0
   -2.4377    0.1775   -0.9539 C   0  0  0  0  0  0  0  0  0  0  0  0
    3.6674    0.9739   -1.0315 H   0  0  0  0  0  0  0  0  0  0  0  0
    2.3635    1.4609    0.5771 H   0  0  0  0  0  0  0  0  0  0  0  0
    3.0168   -0.1139    1.0751 H   0  0  0  0  0  0  0  0  0  0  0  0
    1.1750   -1.3573    0.2754 H   0  0  0  0  0  0  0  0  0  0  0  0
    0.8896   -0.5909    2.2724 H   0  0  0  0  0  0  0  0  0  0  0  0
    0.4415   -0.0748   -1.7384 H   0  0  0  0  0  0  0  0  0  0  0  0
   -0.1398    1.2425   -0.7056 H   0  0  0  0  0  0  0  0  0  0  0  0
   -1.1682   -1.6405   -0.8248 H   0  0  0  0  0  0  0  0  0  0  0  0
   -1.7843   -1.1284    1.5556 H   0  0  0  0  0  0  0  0  0  0  0  0
   -1.7172    0.7040    1.1531 H   0  0  0  0  0  0  0  0  0  0  0  0
   -2.3292    1.2506   -0.7478 H   0  0  0  0  0  0  0  0  0  0  0  0
   -2.8348   -0.1012   -1.9401 H   0  0  0  0  0  0  0  0  0  0  0  0
  1  2  1  0
  2  3  1  0
  3  4  1  0
  3  5  1  0
  5  6  1  0
  6  7  1  0
  7  8  1  0
  8  9  1  0
  9  6  1  0
  1 10  1  0
  2 11  1  0
  2 12  1  0
  3 13  1  0
  4 14  1  0
  5 15  1  0
  5 16  1  0
  6 17  1  0
  7 18  1  0
  7 19  1  0
  9 20  1  0
  9 21  1  0
M  END
