
     RDKit          3D

 15 15  0  0  0  0  0  0  0  0999 V2000
    2.3134    0.2304    1.0743 O   0  0  0  0  0  0  0  0  0  0  0  0
    1.3448   -0.3341    0.2483 C   0  0  0  0  0  0  0  0  0  0  0  0
    0.0790    0.5001    0.2644 C   0  0  0  0  0  0  0  0  0  0  0  0
    0.3283    1.7960   -0.1835 O   0  0  0  0  0  0  0  0  0  0  0  0
   -0.9061   -0.1130   -0.6955 C   0  0  0  0  0  0  0  0  0  0  0  0
   -2.1827   -0.5937   -0.1561 C   0  0  0  0  0  0  0  0  0  0  0  0
   -2.1420    0.6947   -0.6931 O   0  0  0  0  0  0  0  0  0  0  0  0
    3.0798   -0.3970    1.0818 H   0  0  0  0  0  0  0  0  0  0  0  0
    1.1223   -1.3559    0.5789 H   0  0  0  0  0  0  0  0  0  0  0  0
    1.7087   -0.3913   -0.8119 H   0  0  0  0  0  0  0  0  0  0  0  0
   -0.3541    0.5581    1.2618 H   0  0  0  0  0  0  0  0  0  0  0  0
    1.2575    1.8214   -0.5070 H   0  0  0  0  0  0  0  0  0  0  0  0
   -0.5897   -0.4228   -1.6945 H   0  0  0  0  0  0  0  0  0  0  0  0
   -2.2254   -0.7128    0.9530 H   0  0  0  0  0  0  0  0  0  0  0  0
   -2.8339   -1.2801   -0.7208 H   0  0  0  0  0  0  0  0  0  0  0  0
  1  2  1  0
  2  3  1  0
  3  4  1  0
  3  5  1  0
  5  6  1  0
  6  7  1  0
  7  5  1  0
  1  8  1  0
  2  9  1  0
  2 10  1  0
  3 11  1  0
  4 12  1  0
  5 13  1  0
  6 14  1  0
  6 15  1  0
M  END
