
     RDKit          3D

 21 21  0  0  0  0  0  0  0  0999 V2000
   -1.1598    1.0945   -1.3100 O   0  0  0  0  0  0  0  0  0  0  0  0
   -1.3357    0.9647    0.0662 C   0  0  0  0  0  0  0  0  0  0  0  0
   -0.3398   -0.0615    0.6103 C   0  0  0  0  0  0  0  0  0  0  0  0
   -0.5531   -0.1567    1.9844 O   0  0  0  0  0  0  0  0  0  0  0  0
   -0.6148   -1.4030   -0.0001 C   0  0  0  0  0  0  0  0  0  0  0  0
   -1.9359   -1.7671    0.2561 O   0  0  0  0  0  0  0  0  0  0  0  0
    1.0246    0.4668    0.3771 C   0  0  0  0  0  0  0  0  0  0  0  0
    1.5621    0.7803   -0.9614 C   0  0  0  0  0  0  0  0  0  0  0  0
    2.1199   -0.4123   -0.1385 C   0  0  0  0  0  0  0  0  0  0  0  0
   -1.7955    1.7643   -1.6449 H   0  0  0  0  0  0  0  0  0  0  0  0
   -1.1582    1.9611    0.5158 H   0  0  0  0  0  0  0  0  0  0  0  0
   -2.3612    0.6059    0.2824 H   0  0  0  0  0  0  0  0  0  0  0  0
   -0.6651    0.7506    2.3965 H   0  0  0  0  0  0  0  0  0  0  0  0
   -0.5495   -1.2675   -1.1182 H   0  0  0  0  0  0  0  0  0  0  0  0
    0.0313   -2.2012    0.3462 H   0  0  0  0  0  0  0  0  0  0  0  0
   -2.0036   -2.7338    0.4245 H   0  0  0  0  0  0  0  0  0  0  0  0
    1.3749    1.1792    1.1830 H   0  0  0  0  0  0  0  0  0  0  0  0
    1.0328    0.5303   -1.8954 H   0  0  0  0  0  0  0  0  0  0  0  0
    2.2777    1.6236   -1.0911 H   0  0  0  0  0  0  0  0  0  0  0  0
    3.1517   -0.2998    0.2449 H   0  0  0  0  0  0  0  0  0  0  0  0
    1.8972   -1.4182   -0.5277 H   0  0  0  0  0  0  0  0  0  0  0  0
  1  2  1  0
  2  3  1  0
  3  4  1  0
  3  5  1  0
  5  6  1  0
  3  7  1  0
  7  8  1  0
  8  9  1  0
  9  7  1  0
  1 10  1  0
  2 11  1  0
  2 12  1  0
  4 13  1  0
  5 14  1  0
  5 15  1  0
  6 16  1  0
  7 17  1  0
  8 18  1  0
  8 19  1  0
  9 20  1  0
  9 21  1  0
M  END
