
     RDKit          3D

 19 19  0  0  0  0  0  0  0  0999 V2000
    2.7465   -0.9804   -0.1545 O   0  0  0  0  0  0  0  0  0  0  0  0
    1.6073   -0.2186    0.0844 C   0  0  0  0  0  0  0  0  0  0  0  0
    0.3882   -0.8295   -0.5366 C   0  0  0  0  0  0  0  0  0  0  0  0
    0.1589   -2.1126   -0.0171 O   0  0  0  0  0  0  0  0  0  0  0  0
   -0.8160    0.0078   -0.2836 C   0  0  0  0  0  0  0  0  0  0  0  0
   -1.9830   -0.4720   -0.8633 O   0  0  0  0  0  0  0  0  0  0  0  0
   -0.6608    1.4882   -0.3819 C   0  0  0  0  0  0  0  0  0  0  0  0
   -0.1415    1.4846    0.9160 O   0  0  0  0  0  0  0  0  0  0  0  0
   -0.9553    0.3856    1.1770 C   0  0  0  0  0  0  0  0  0  0  0  0
    3.5218   -0.3783    0.0827 H   0  0  0  0  0  0  0  0  0  0  0  0
    1.4625   -0.2031    1.1859 H   0  0  0  0  0  0  0  0  0  0  0  0
    1.7539    0.7777   -0.3473 H   0  0  0  0  0  0  0  0  0  0  0  0
    0.4989   -0.9606   -1.6298 H   0  0  0  0  0  0  0  0  0  0  0  0
   -0.7459   -2.4092   -0.2586 H   0  0  0  0  0  0  0  0  0  0  0  0
   -2.6954    0.2187   -0.7355 H   0  0  0  0  0  0  0  0  0  0  0  0
    0.0255    1.8749   -1.1564 H   0  0  0  0  0  0  0  0  0  0  0  0
   -1.6600    1.9839   -0.3540 H   0  0  0  0  0  0  0  0  0  0  0  0
   -0.4868   -0.2938    1.8911 H   0  0  0  0  0  0  0  0  0  0  0  0
   -2.0187    0.6368    1.3816 H   0  0  0  0  0  0  0  0  0  0  0  0
  1  2  1  0
  2  3  1  0
  3  4  1  0
  3  5  1  0
  5  6  1  0
  5  7  1  0
  7  8  1  0
  8  9  1  0
  9  5  1  0
  1 10  1  0
  2 11  1  0
  2 12  1  0
  3 13  1  0
  4 14  1  0
  6 15  1  0
  7 16  1  0
  7 17  1  0
  9 18  1  0
  9 19  1  0
M  END
