
     RDKit          3D

 14 13  0  0  0  0  0  0  0  0999 V2000
   -1.9060   -0.5025    0.6476 O   0  0  0  0  0  0  0  0  0  0  0  0
   -1.0918   -0.4634   -0.4676 C   0  0  0  0  0  0  0  0  0  0  0  0
    0.0574    0.5025   -0.3266 C   0  0  0  0  0  0  0  0  0  0  0  0
   -0.3909    1.7813   -0.1223 O   0  0  0  0  0  0  0  0  0  0  0  0
    1.0306    0.1143    0.7413 C   0  0  0  0  0  0  0  0  0  0  0  0
    1.5070   -1.1878    0.5603 O   0  0  0  0  0  0  0  0  0  0  0  0
   -2.1656   -1.4317    0.8714 H   0  0  0  0  0  0  0  0  0  0  0  0
   -1.7145   -0.1070   -1.3187 H   0  0  0  0  0  0  0  0  0  0  0  0
   -0.6810   -1.4632   -0.7351 H   0  0  0  0  0  0  0  0  0  0  0  0
    0.6142    0.4669   -1.3022 H   0  0  0  0  0  0  0  0  0  0  0  0
    0.0322    2.4195   -0.7784 H   0  0  0  0  0  0  0  0  0  0  0  0
    1.9090    0.7903    0.6530 H   0  0  0  0  0  0  0  0  0  0  0  0
    0.6385    0.2550    1.7660 H   0  0  0  0  0  0  0  0  0  0  0  0
    2.1610   -1.1741   -0.1886 H   0  0  0  0  0  0  0  0  0  0  0  0
  1  2  1  0
  2  3  1  0
  3  4  1  0
  3  5  1  0
  5  6  1  0
  1  7  1  0
  2  8  1  0
  2  9  1  0
  3 10  1  0
  4 11  1  0
  5 12  1  0
  5 13  1  0
  6 14  1  0
M  END
