
     RDKit          3D

 21 21  0  0  0  0  0  0  0  0999 V2000
   -1.3448    1.5353    0.9403 O   0  0  0  0  0  0  0  0  0  0  0  0
   -1.6604    0.7040   -0.1047 C   0  0  0  0  0  0  0  0  0  0  0  0
   -1.3269   -0.7152    0.0505 C   0  0  0  0  0  0  0  0  0  0  0  0
   -1.7635   -1.3645   -1.1376 O   0  0  0  0  0  0  0  0  0  0  0  0
    0.0624   -1.1474    0.2699 C   0  0  0  0  0  0  0  0  0  0  0  0
    0.8220   -0.6547    1.4675 C   0  0  0  0  0  0  0  0  0  0  0  0
    1.3223   -0.5160    0.0332 C   0  0  0  0  0  0  0  0  0  0  0  0
    1.5864    0.8505   -0.5071 C   0  0  0  0  0  0  0  0  0  0  0  0
    2.9817    1.0988   -0.5947 O   0  0  0  0  0  0  0  0  0  0  0  0
   -2.0463    2.1428    1.2311 H   0  0  0  0  0  0  0  0  0  0  0  0
   -2.7906    0.7544   -0.1970 H   0  0  0  0  0  0  0  0  0  0  0  0
   -1.3268    1.1498   -1.0892 H   0  0  0  0  0  0  0  0  0  0  0  0
   -1.9612   -1.1505    0.8518 H   0  0  0  0  0  0  0  0  0  0  0  0
   -2.6747   -1.1000   -1.3576 H   0  0  0  0  0  0  0  0  0  0  0  0
    0.0713   -2.2930    0.2471 H   0  0  0  0  0  0  0  0  0  0  0  0
    1.3306   -1.3507    2.1617 H   0  0  0  0  0  0  0  0  0  0  0  0
    0.5274    0.2903    1.9624 H   0  0  0  0  0  0  0  0  0  0  0  0
    2.2131   -1.1966   -0.1487 H   0  0  0  0  0  0  0  0  0  0  0  0
    1.2253    1.0122   -1.5437 H   0  0  0  0  0  0  0  0  0  0  0  0
    1.2599    1.6811    0.1861 H   0  0  0  0  0  0  0  0  0  0  0  0
    3.4929    0.2695   -0.6367 H   0  0  0  0  0  0  0  0  0  0  0  0
  1  2  1  0
  2  3  1  0
  3  4  1  0
  3  5  1  0
  5  6  1  0
  6  7  1  0
  7  8  1  0
  8  9  1  0
  7  5  1  0
  1 10  1  0
  2 11  1  0
  2 12  1  0
  3 13  1  0
  4 14  1  0
  5 15  1  0
  6 16  1  0
  6 17  1  0
  7 18  1  0
  8 19  1  0
  8 20  1  0
  9 21  1  0
M  END
