
     RDKit          3D

 20 20  0  0  0  0  0  0  0  0999 V2000
    3.2389   -0.2103    0.7607 O   0  0  0  0  0  0  0  0  0  0  0  0
    1.9802   -0.6783    0.3514 C   0  0  0  0  0  0  0  0  0  0  0  0
    1.2410    0.4886   -0.2636 C   0  0  0  0  0  0  0  0  0  0  0  0
    1.0798    1.5145    0.6448 O   0  0  0  0  0  0  0  0  0  0  0  0
   -0.0787    0.0907   -0.8708 C   0  0  0  0  0  0  0  0  0  0  0  0
   -1.0205   -0.5073    0.1118 C   0  0  0  0  0  0  0  0  0  0  0  0
   -2.3570   -0.9639   -0.2581 C   0  0  0  0  0  0  0  0  0  0  0  0
   -2.1901    0.3570    0.5218 C   0  0  0  0  0  0  0  0  0  0  0  0
    3.2277    0.7709    0.8747 H   0  0  0  0  0  0  0  0  0  0  0  0
    2.1660   -1.4695   -0.4030 H   0  0  0  0  0  0  0  0  0  0  0  0
    1.4968   -1.0773    1.2561 H   0  0  0  0  0  0  0  0  0  0  0  0
    1.8720    0.8778   -1.0901 H   0  0  0  0  0  0  0  0  0  0  0  0
    0.8700    2.3537    0.1631 H   0  0  0  0  0  0  0  0  0  0  0  0
    0.0884   -0.5609   -1.7718 H   0  0  0  0  0  0  0  0  0  0  0  0
   -0.5311    1.0177   -1.2786 H   0  0  0  0  0  0  0  0  0  0  0  0
   -0.5179   -1.0335    0.9610 H   0  0  0  0  0  0  0  0  0  0  0  0
   -2.8795   -1.7367    0.3255 H   0  0  0  0  0  0  0  0  0  0  0  0
   -2.7456   -0.8686   -1.3121 H   0  0  0  0  0  0  0  0  0  0  0  0
   -2.4344    1.2552   -0.0567 H   0  0  0  0  0  0  0  0  0  0  0  0
   -2.5059    0.3803    1.5732 H   0  0  0  0  0  0  0  0  0  0  0  0
  1  2  1  0
  2  3  1  0
  3  4  1  0
  3  5  1  0
  5  6  1  0
  6  7  1  0
  7  8  1  0
  8  6  1  0
  1  9  1  0
  2 10  1  0
  2 11  1  0
  3 12  1  0
  4 13  1  0
  5 14  1  0
  5 15  1  0
  6 16  1  0
  7 17  1  0
  7 18  1  0
  8 19  1  0
  8 20  1  0
M  END
