
     RDKit          3D

 23 23  0  0  0  0  0  0  0  0999 V2000
    3.3413   -0.7990   -0.2999 O   0  0  0  0  0  0  0  0  0  0  0  0
    2.7614    0.4334   -0.0689 C   0  0  0  0  0  0  0  0  0  0  0  0
    1.4027    0.3115    0.5443 C   0  0  0  0  0  0  0  0  0  0  0  0
    0.8768    1.5681    0.7505 O   0  0  0  0  0  0  0  0  0  0  0  0
    0.4781   -0.5494   -0.3109 C   0  0  0  0  0  0  0  0  0  0  0  0
   -0.8827   -0.6516    0.3358 C   0  0  0  0  0  0  0  0  0  0  0  0
   -1.5833    0.6729    0.5286 C   0  0  0  0  0  0  0  0  0  0  0  0
   -2.8837   -0.0585    0.1750 C   0  0  0  0  0  0  0  0  0  0  0  0
   -2.0000   -1.0235   -0.6277 C   0  0  0  0  0  0  0  0  0  0  0  0
    3.5858   -0.8419   -1.2586 H   0  0  0  0  0  0  0  0  0  0  0  0
    3.3912    1.0282    0.6127 H   0  0  0  0  0  0  0  0  0  0  0  0
    2.6728    1.0313   -1.0176 H   0  0  0  0  0  0  0  0  0  0  0  0
    1.4868   -0.1807    1.5382 H   0  0  0  0  0  0  0  0  0  0  0  0
    1.0288    2.1017   -0.0751 H   0  0  0  0  0  0  0  0  0  0  0  0
    0.3633   -0.0298   -1.2837 H   0  0  0  0  0  0  0  0  0  0  0  0
    0.9385   -1.5346   -0.4841 H   0  0  0  0  0  0  0  0  0  0  0  0
   -0.9318   -1.2827    1.2348 H   0  0  0  0  0  0  0  0  0  0  0  0
   -1.5520    1.0987    1.5289 H   0  0  0  0  0  0  0  0  0  0  0  0
   -1.3368    1.3494   -0.3201 H   0  0  0  0  0  0  0  0  0  0  0  0
   -3.3080   -0.5232    1.1025 H   0  0  0  0  0  0  0  0  0  0  0  0
   -3.5824    0.5273   -0.4318 H   0  0  0  0  0  0  0  0  0  0  0  0
   -2.3824   -2.0372   -0.5298 H   0  0  0  0  0  0  0  0  0  0  0  0
   -1.8846   -0.6104   -1.6429 H   0  0  0  0  0  0  0  0  0  0  0  0
  1  2  1  0
  2  3  1  0
  3  4  1  0
  3  5  1  0
  5  6  1  0
  6  7  1  0
  7  8  1  0
  8  9  1  0
  9  6  1  0
  1 10  1  0
  2 11  1  0
  2 12  1  0
  3 13  1  0
  4 14  1  0
  5 15  1  0
  5 16  1  0
  6 17  1  0
  7 18  1  0
  7 19  1  0
  8 20  1  0
  8 21  1  0
  9 22  1  0
  9 23  1  0
M  END
