
     RDKit          3D

 19 19  0  0  0  0  0  0  0  0999 V2000
   -1.9480    1.8775   -0.8951 O   0  0  0  0  0  0  0  0  0  0  0  0
   -2.4212    0.6561   -0.4331 C   0  0  0  0  0  0  0  0  0  0  0  0
   -1.3793    0.0243    0.4581 C   0  0  0  0  0  0  0  0  0  0  0  0
   -1.9263   -1.2058    0.8877 O   0  0  0  0  0  0  0  0  0  0  0  0
   -0.1159   -0.3111   -0.2860 C   0  0  0  0  0  0  0  0  0  0  0  0
    0.5482    0.8481   -0.7819 O   0  0  0  0  0  0  0  0  0  0  0  0
    1.2085    0.1668    0.2518 C   0  0  0  0  0  0  0  0  0  0  0  0
    2.4595   -0.5267   -0.2091 C   0  0  0  0  0  0  0  0  0  0  0  0
    3.1127   -1.1986    0.8049 O   0  0  0  0  0  0  0  0  0  0  0  0
   -1.4321    2.2811   -0.1412 H   0  0  0  0  0  0  0  0  0  0  0  0
   -3.3382    0.8075    0.1656 H   0  0  0  0  0  0  0  0  0  0  0  0
   -2.6719   -0.0357   -1.2780 H   0  0  0  0  0  0  0  0  0  0  0  0
   -1.2118    0.6690    1.3301 H   0  0  0  0  0  0  0  0  0  0  0  0
   -1.1838   -1.8127    1.1025 H   0  0  0  0  0  0  0  0  0  0  0  0
   -0.0527   -1.2356   -0.8747 H   0  0  0  0  0  0  0  0  0  0  0  0
    1.1598    0.5641    1.2723 H   0  0  0  0  0  0  0  0  0  0  0  0
    2.2369   -1.2068   -1.0615 H   0  0  0  0  0  0  0  0  0  0  0  0
    3.1625    0.2379   -0.6144 H   0  0  0  0  0  0  0  0  0  0  0  0
    3.7931   -0.5995    1.2448 H   0  0  0  0  0  0  0  0  0  0  0  0
  1  2  1  0
  2  3  1  0
  3  4  1  0
  3  5  1  0
  5  6  1  0
  6  7  1  0
  7  8  1  0
  8  9  1  0
  7  5  1  0
  1 10  1  0
  2 11  1  0
  2 12  1  0
  3 13  1  0
  4 14  1  0
  5 15  1  0
  7 16  1  0
  8 17  1  0
  8 18  1  0
  9 19  1  0
M  END
