
     RDKit          3D

 17 16  0  0  0  0  0  0  0  0999 V2000
    0.1174    2.2471    0.6502 O   0  0  0  0  0  0  0  0  0  0  0  0
   -0.3456    1.2864   -0.2716 C   0  0  0  0  0  0  0  0  0  0  0  0
   -0.1331   -0.1126    0.2765 C   0  0  0  0  0  0  0  0  0  0  0  0
   -0.6339   -1.0945   -0.7248 C   0  0  0  0  0  0  0  0  0  0  0  0
   -1.9998   -0.8397   -0.9252 O   0  0  0  0  0  0  0  0  0  0  0  0
    1.2800   -0.3428    0.7106 C   0  0  0  0  0  0  0  0  0  0  0  0
    2.2067   -0.1948   -0.3014 O   0  0  0  0  0  0  0  0  0  0  0  0
   -0.5006    2.3602    1.4039 H   0  0  0  0  0  0  0  0  0  0  0  0
    0.1754    1.4663   -1.2160 H   0  0  0  0  0  0  0  0  0  0  0  0
   -1.4274    1.4873   -0.3864 H   0  0  0  0  0  0  0  0  0  0  0  0
   -0.7739   -0.1849    1.1858 H   0  0  0  0  0  0  0  0  0  0  0  0
   -0.1437   -0.8783   -1.7144 H   0  0  0  0  0  0  0  0  0  0  0  0
   -0.4504   -2.1449   -0.4745 H   0  0  0  0  0  0  0  0  0  0  0  0
   -2.4614   -1.0552   -0.0825 H   0  0  0  0  0  0  0  0  0  0  0  0
    1.3228   -1.3409    1.1937 H   0  0  0  0  0  0  0  0  0  0  0  0
    1.5310    0.3910    1.5039 H   0  0  0  0  0  0  0  0  0  0  0  0
    2.2364   -1.0498   -0.8281 H   0  0  0  0  0  0  0  0  0  0  0  0
  1  2  1  0
  2  3  1  0
  3  4  1  0
  4  5  1  0
  3  6  1  0
  6  7  1  0
  1  8  1  0
  2  9  1  0
  2 10  1  0
  3 11  1  0
  4 12  1  0
  4 13  1  0
  5 14  1  0
  6 15  1  0
  6 16  1  0
  7 17  1  0
M  END
