
     RDKit          3D

 17 17  0  0  0  0  0  0  0  0999 V2000
   -1.7131    1.8722   -0.5208 O   0  0  0  0  0  0  0  0  0  0  0  0
   -2.3664    0.9055    0.2363 C   0  0  0  0  0  0  0  0  0  0  0  0
   -1.7743   -0.4474   -0.1093 C   0  0  0  0  0  0  0  0  0  0  0  0
   -2.3717   -1.4720    0.6044 O   0  0  0  0  0  0  0  0  0  0  0  0
   -0.3307   -0.4222    0.1152 C   0  0  0  0  0  0  0  0  0  0  0  0
    0.8740   -0.4130    0.2848 C   0  0  0  0  0  0  0  0  0  0  0  0
    2.3266   -0.4128    0.5103 C   0  0  0  0  0  0  0  0  0  0  0  0
    3.1957    0.2146   -0.4923 C   0  0  0  0  0  0  0  0  0  0  0  0
    3.0437   -1.2037   -0.5544 O   0  0  0  0  0  0  0  0  0  0  0  0
   -1.0193    1.5001   -1.1173 H   0  0  0  0  0  0  0  0  0  0  0  0
   -2.3250    1.1076    1.3262 H   0  0  0  0  0  0  0  0  0  0  0  0
   -3.4263    0.8750   -0.1364 H   0  0  0  0  0  0  0  0  0  0  0  0
   -2.0164   -0.6330   -1.1886 H   0  0  0  0  0  0  0  0  0  0  0  0
   -1.6708   -1.9536    1.0915 H   0  0  0  0  0  0  0  0  0  0  0  0
    2.6799   -0.8118    1.4642 H   0  0  0  0  0  0  0  0  0  0  0  0
    2.6674    0.8041   -1.2814 H   0  0  0  0  0  0  0  0  0  0  0  0
    4.2267    0.4903   -0.2322 H   0  0  0  0  0  0  0  0  0  0  0  0
  1  2  1  0
  2  3  1  0
  3  4  1  0
  3  5  1  0
  5  6  3  0
  6  7  1  0
  7  8  1  0
  8  9  1  0
  9  7  1  0
  1 10  1  0
  2 11  1  0
  2 12  1  0
  3 13  1  0
  4 14  1  0
  7 15  1  0
  8 16  1  0
  8 17  1  0
M  END
