
     RDKit          3D

 21 22  0  0  0  0  0  0  0  0999 V2000
    2.7241    1.3780   -0.7870 O   0  0  0  0  0  0  0  0  0  0  0  0
    1.4115    1.0594   -0.4398 C   0  0  0  0  0  0  0  0  0  0  0  0
    1.2513   -0.4151   -0.5330 C   0  0  0  0  0  0  0  0  0  0  0  0
    2.1482   -1.0187    0.3467 O   0  0  0  0  0  0  0  0  0  0  0  0
   -0.1299   -0.9162   -0.2449 C   0  0  0  0  0  0  0  0  0  0  0  0
   -0.7046   -0.6298    1.0942 C   0  0  0  0  0  0  0  0  0  0  0  0
   -2.0084   -0.2559    0.3953 C   0  0  0  0  0  0  0  0  0  0  0  0
   -1.9211    0.9647   -0.4297 C   0  0  0  0  0  0  0  0  0  0  0  0
   -1.2445   -0.2196   -0.9636 C   0  0  0  0  0  0  0  0  0  0  0  0
    3.3182    0.5835   -0.7708 H   0  0  0  0  0  0  0  0  0  0  0  0
    1.2537    1.4594    0.5799 H   0  0  0  0  0  0  0  0  0  0  0  0
    0.7527    1.5750   -1.1885 H   0  0  0  0  0  0  0  0  0  0  0  0
    1.5231   -0.7320   -1.5608 H   0  0  0  0  0  0  0  0  0  0  0  0
    1.6902   -1.0384    1.2306 H   0  0  0  0  0  0  0  0  0  0  0  0
   -0.1760   -2.0137   -0.4582 H   0  0  0  0  0  0  0  0  0  0  0  0
   -0.7815   -1.4907    1.7759 H   0  0  0  0  0  0  0  0  0  0  0  0
   -0.3395    0.2752    1.6179 H   0  0  0  0  0  0  0  0  0  0  0  0
   -2.8545   -0.9305    0.4137 H   0  0  0  0  0  0  0  0  0  0  0  0
   -2.8343    1.2949   -0.9213 H   0  0  0  0  0  0  0  0  0  0  0  0
   -1.3504    1.8183    0.0397 H   0  0  0  0  0  0  0  0  0  0  0  0
   -1.7282   -0.7476   -1.8087 H   0  0  0  0  0  0  0  0  0  0  0  0
  1  2  1  0
  2  3  1  0
  3  4  1  0
  3  5  1  0
  5  6  1  0
  6  7  1  0
  7  8  1  0
  8  9  1  0
  9  5  1  0
  9  7  1  0
  1 10  1  0
  2 11  1  0
  2 12  1  0
  3 13  1  0
  4 14  1  0
  5 15  1  0
  6 16  1  0
  6 17  1  0
  7 18  1  0
  8 19  1  0
  8 20  1  0
  9 21  1  0
M  END
