
     RDKit          3D

 20 20  0  0  0  0  0  0  0  0999 V2000
   -1.2195    1.0906    2.1763 O   0  0  0  0  0  0  0  0  0  0  0  0
   -1.3537    0.1339    1.1961 C   0  0  0  0  0  0  0  0  0  0  0  0
   -0.4689    0.4799   -0.0117 C   0  0  0  0  0  0  0  0  0  0  0  0
   -0.6928   -0.6237   -1.0129 C   0  0  0  0  0  0  0  0  0  0  0  0
   -2.0310   -0.7091   -1.4045 O   0  0  0  0  0  0  0  0  0  0  0  0
    0.9655    0.4442    0.4139 C   0  0  0  0  0  0  0  0  0  0  0  0
    2.0723    0.7311   -0.5151 C   0  0  0  0  0  0  0  0  0  0  0  0
    1.8005   -0.6847   -0.1518 C   0  0  0  0  0  0  0  0  0  0  0  0
   -1.8717    1.8233    1.9925 H   0  0  0  0  0  0  0  0  0  0  0  0
   -1.1521   -0.9001    1.5361 H   0  0  0  0  0  0  0  0  0  0  0  0
   -2.4298    0.1333    0.8742 H   0  0  0  0  0  0  0  0  0  0  0  0
   -0.7684    1.4750   -0.4112 H   0  0  0  0  0  0  0  0  0  0  0  0
   -0.0931   -0.4745   -1.9453 H   0  0  0  0  0  0  0  0  0  0  0  0
   -0.4838   -1.5907   -0.5103 H   0  0  0  0  0  0  0  0  0  0  0  0
   -2.2564   -1.6237   -1.6672 H   0  0  0  0  0  0  0  0  0  0  0  0
    1.1543    0.6403    1.4930 H   0  0  0  0  0  0  0  0  0  0  0  0
    2.9969    1.1523   -0.0709 H   0  0  0  0  0  0  0  0  0  0  0  0
    1.9057    1.0514   -1.5477 H   0  0  0  0  0  0  0  0  0  0  0  0
    1.4550   -1.3162   -0.9759 H   0  0  0  0  0  0  0  0  0  0  0  0
    2.4711   -1.2325    0.5423 H   0  0  0  0  0  0  0  0  0  0  0  0
  1  2  1  0
  2  3  1  0
  3  4  1  0
  4  5  1  0
  3  6  1  0
  6  7  1  0
  7  8  1  0
  8  6  1  0
  1  9  1  0
  2 10  1  0
  2 11  1  0
  3 12  1  0
  4 13  1  0
  4 14  1  0
  5 15  1  0
  6 16  1  0
  7 17  1  0
  7 18  1  0
  8 19  1  0
  8 20  1  0
M  END
