
     RDKit          3D

 21 21  0  0  0  0  0  0  0  0999 V2000
    2.8358    0.1313   -1.4168 O   0  0  0  0  0  0  0  0  0  0  0  0
    2.5687   -0.2289   -0.1038 C   0  0  0  0  0  0  0  0  0  0  0  0
    1.2145    0.3287    0.3476 C   0  0  0  0  0  0  0  0  0  0  0  0
    1.0337   -0.0745    1.6512 O   0  0  0  0  0  0  0  0  0  0  0  0
    0.1793   -0.2213   -0.6036 C   0  0  0  0  0  0  0  0  0  0  0  0
   -1.2082    0.2339   -0.2953 C   0  0  0  0  0  0  0  0  0  0  0  0
   -1.7256   -0.1527    1.0926 C   0  0  0  0  0  0  0  0  0  0  0  0
   -2.3468   -0.6798   -0.1728 C   0  0  0  0  0  0  0  0  0  0  0  0
   -3.6267   -0.1355   -0.4291 O   0  0  0  0  0  0  0  0  0  0  0  0
    3.2807    1.0300   -1.4011 H   0  0  0  0  0  0  0  0  0  0  0  0
    3.3955    0.1991    0.5215 H   0  0  0  0  0  0  0  0  0  0  0  0
    2.6046   -1.3160    0.0539 H   0  0  0  0  0  0  0  0  0  0  0  0
    1.2100    1.4220    0.2461 H   0  0  0  0  0  0  0  0  0  0  0  0
    0.6996    0.6118    2.2561 H   0  0  0  0  0  0  0  0  0  0  0  0
    0.2072   -1.3470   -0.6291 H   0  0  0  0  0  0  0  0  0  0  0  0
    0.4718    0.1080   -1.6237 H   0  0  0  0  0  0  0  0  0  0  0  0
   -1.4252    1.2791   -0.6387 H   0  0  0  0  0  0  0  0  0  0  0  0
   -2.2305    0.6851    1.6377 H   0  0  0  0  0  0  0  0  0  0  0  0
   -1.1559   -0.8950    1.6744 H   0  0  0  0  0  0  0  0  0  0  0  0
   -2.3070   -1.7528   -0.3562 H   0  0  0  0  0  0  0  0  0  0  0  0
   -3.6755    0.7746   -0.0200 H   0  0  0  0  0  0  0  0  0  0  0  0
  1  2  1  0
  2  3  1  0
  3  4  1  0
  3  5  1  0
  5  6  1  0
  6  7  1  0
  7  8  1  0
  8  9  1  0
  8  6  1  0
  1 10  1  0
  2 11  1  0
  2 12  1  0
  3 13  1  0
  4 14  1  0
  5 15  1  0
  5 16  1  0
  6 17  1  0
  7 18  1  0
  7 19  1  0
  8 20  1  0
  9 21  1  0
M  END
