
     RDKit          3D

 21 20  0  0  0  0  0  0  0  0999 V2000
    1.9158   -0.5729   -1.3370 O   0  0  0  0  0  0  0  0  0  0  0  0
    1.0120   -1.1307   -0.4454 C   0  0  0  0  0  0  0  0  0  0  0  0
    0.0096   -0.1225    0.0747 C   0  0  0  0  0  0  0  0  0  0  0  0
    0.7672    0.9794    0.7850 C   0  0  0  0  0  0  0  0  0  0  0  0
    1.6531    1.6163   -0.0822 O   0  0  0  0  0  0  0  0  0  0  0  0
   -0.7520    0.4241   -1.1103 C   0  0  0  0  0  0  0  0  0  0  0  0
   -1.7032    1.3678   -0.7113 O   0  0  0  0  0  0  0  0  0  0  0  0
   -0.8970   -0.8709    1.0239 C   0  0  0  0  0  0  0  0  0  0  0  0
   -1.8729   -0.0546    1.5780 O   0  0  0  0  0  0  0  0  0  0  0  0
    2.3265   -1.3452   -1.8360 H   0  0  0  0  0  0  0  0  0  0  0  0
    0.4460   -1.9725   -0.8640 H   0  0  0  0  0  0  0  0  0  0  0  0
    1.6018   -1.4641    0.4568 H   0  0  0  0  0  0  0  0  0  0  0  0
    1.3753    0.5521    1.6067 H   0  0  0  0  0  0  0  0  0  0  0  0
    0.0969    1.7246    1.2403 H   0  0  0  0  0  0  0  0  0  0  0  0
    1.7952    2.5334    0.2499 H   0  0  0  0  0  0  0  0  0  0  0  0
   -1.2116   -0.3798   -1.6797 H   0  0  0  0  0  0  0  0  0  0  0  0
   -0.0549    0.9582   -1.7875 H   0  0  0  0  0  0  0  0  0  0  0  0
   -2.3817    1.4995   -1.4007 H   0  0  0  0  0  0  0  0  0  0  0  0
   -0.2589   -1.3671    1.7825 H   0  0  0  0  0  0  0  0  0  0  0  0
   -1.3499   -1.7055    0.4193 H   0  0  0  0  0  0  0  0  0  0  0  0
   -2.5173   -0.6696    2.0371 H   0  0  0  0  0  0  0  0  0  0  0  0
  1  2  1  0
  2  3  1  0
  3  4  1  0
  4  5  1  0
  3  6  1  0
  6  7  1  0
  3  8  1  0
  8  9  1  0
  1 10  1  0
  2 11  1  0
  2 12  1  0
  4 13  1  0
  4 14  1  0
  5 15  1  0
  6 16  1  0
  6 17  1  0
  7 18  1  0
  8 19  1  0
  8 20  1  0
  9 21  1  0
M  END
