
     RDKit          3D

 18 18  0  0  0  0  0  0  0  0999 V2000
    3.0222   -0.1967   -0.2749 O   0  0  0  0  0  0  0  0  0  0  0  0
    1.8475    0.0148    0.4452 C   0  0  0  0  0  0  0  0  0  0  0  0
    0.6995   -0.3837   -0.4369 C   0  0  0  0  0  0  0  0  0  0  0  0
    0.8066   -1.7160   -0.7895 O   0  0  0  0  0  0  0  0  0  0  0  0
   -0.5974   -0.1495    0.2856 C   0  0  0  0  0  0  0  0  0  0  0  0
   -1.7184    0.0714   -0.7373 C   0  0  0  0  0  0  0  0  0  0  0  0
   -2.1868    0.9400    0.4100 C   0  0  0  0  0  0  0  0  0  0  0  0
   -0.8186    1.1636    0.6931 O   0  0  0  0  0  0  0  0  0  0  0  0
    3.6065    0.5899   -0.1444 H   0  0  0  0  0  0  0  0  0  0  0  0
    1.7499    1.0886    0.7040 H   0  0  0  0  0  0  0  0  0  0  0  0
    1.8256   -0.6028    1.3706 H   0  0  0  0  0  0  0  0  0  0  0  0
    0.7290    0.2169   -1.3795 H   0  0  0  0  0  0  0  0  0  0  0  0
    0.8743   -2.2431    0.0480 H   0  0  0  0  0  0  0  0  0  0  0  0
   -0.8405   -0.8741    1.0577 H   0  0  0  0  0  0  0  0  0  0  0  0
   -1.3814    0.6713   -1.5880 H   0  0  0  0  0  0  0  0  0  0  0  0
   -2.2695   -0.8442   -0.9190 H   0  0  0  0  0  0  0  0  0  0  0  0
   -2.6562    1.8795    0.0915 H   0  0  0  0  0  0  0  0  0  0  0  0
   -2.6925    0.3740    1.2133 H   0  0  0  0  0  0  0  0  0  0  0  0
  1  2  1  0
  2  3  1  0
  3  4  1  0
  3  5  1  0
  5  6  1  0
  6  7  1  0
  7  8  1  0
  8  5  1  0
  1  9  1  0
  2 10  1  0
  2 11  1  0
  3 12  1  0
  4 13  1  0
  5 14  1  0
  6 15  1  0
  6 16  1  0
  7 17  1  0
  7 18  1  0
M  END
