
     RDKit          3D

 21 21  0  0  0  0  0  0  0  0999 V2000
   -0.8379   -2.2623   -0.4083 O   0  0  0  0  0  0  0  0  0  0  0  0
   -1.3900   -1.1002    0.1029 C   0  0  0  0  0  0  0  0  0  0  0  0
   -0.5553    0.0956   -0.2327 C   0  0  0  0  0  0  0  0  0  0  0  0
   -1.2035    1.3177    0.3465 C   0  0  0  0  0  0  0  0  0  0  0  0
   -0.4407    2.4457    0.0450 O   0  0  0  0  0  0  0  0  0  0  0  0
    0.8470   -0.1296    0.2284 C   0  0  0  0  0  0  0  0  0  0  0  0
    0.9951   -0.3424    1.5869 O   0  0  0  0  0  0  0  0  0  0  0  0
    2.0029    0.5179   -0.4480 C   0  0  0  0  0  0  0  0  0  0  0  0
    1.7009   -0.9426   -0.7230 C   0  0  0  0  0  0  0  0  0  0  0  0
   -1.4346   -3.0126   -0.0908 H   0  0  0  0  0  0  0  0  0  0  0  0
   -1.4760   -1.2256    1.1996 H   0  0  0  0  0  0  0  0  0  0  0  0
   -2.4167   -1.0199   -0.3261 H   0  0  0  0  0  0  0  0  0  0  0  0
   -0.6016    0.2144   -1.3540 H   0  0  0  0  0  0  0  0  0  0  0  0
   -1.3629    1.1841    1.4197 H   0  0  0  0  0  0  0  0  0  0  0  0
   -2.1880    1.4328   -0.1942 H   0  0  0  0  0  0  0  0  0  0  0  0
   -1.0482    3.1923   -0.1182 H   0  0  0  0  0  0  0  0  0  0  0  0
    1.0382    0.4783    2.1206 H   0  0  0  0  0  0  0  0  0  0  0  0
    2.9279    0.6947    0.1022 H   0  0  0  0  0  0  0  0  0  0  0  0
    1.7307    1.2808   -1.2049 H   0  0  0  0  0  0  0  0  0  0  0  0
    1.3344   -1.1149   -1.7541 H   0  0  0  0  0  0  0  0  0  0  0  0
    2.3782   -1.7040   -0.2973 H   0  0  0  0  0  0  0  0  0  0  0  0
  1  2  1  0
  2  3  1  0
  3  4  1  0
  4  5  1  0
  3  6  1  0
  6  7  1  0
  6  8  1  0
  8  9  1  0
  9  6  1  0
  1 10  1  0
  2 11  1  0
  2 12  1  0
  3 13  1  0
  4 14  1  0
  4 15  1  0
  5 16  1  0
  7 17  1  0
  8 18  1  0
  8 19  1  0
  9 20  1  0
  9 21  1  0
M  END
