
     RDKit          3D

 21 21  0  0  0  0  0  0  0  0999 V2000
    3.0197    0.2991    1.1786 O   0  0  0  0  0  0  0  0  0  0  0  0
    1.6522    0.0756    1.0350 C   0  0  0  0  0  0  0  0  0  0  0  0
    1.2291    0.2025   -0.3780 C   0  0  0  0  0  0  0  0  0  0  0  0
    1.5153    1.4867   -0.8406 O   0  0  0  0  0  0  0  0  0  0  0  0
   -0.2051   -0.0789   -0.6496 C   0  0  0  0  0  0  0  0  0  0  0  0
   -0.6878   -1.4019   -0.3117 C   0  0  0  0  0  0  0  0  0  0  0  0
   -1.9783   -1.3235   -0.0230 C   0  0  0  0  0  0  0  0  0  0  0  0
   -2.4456    0.1042   -0.1552 C   0  0  0  0  0  0  0  0  0  0  0  0
   -1.1197    0.8219    0.1527 C   0  0  0  0  0  0  0  0  0  0  0  0
    3.5127   -0.1566    0.4377 H   0  0  0  0  0  0  0  0  0  0  0  0
    1.4142   -0.8587    1.5282 H   0  0  0  0  0  0  0  0  0  0  0  0
    1.1545    0.8894    1.6399 H   0  0  0  0  0  0  0  0  0  0  0  0
    1.8425   -0.4921   -0.9947 H   0  0  0  0  0  0  0  0  0  0  0  0
    2.3877    1.5353   -1.2902 H   0  0  0  0  0  0  0  0  0  0  0  0
   -0.4640    0.1195   -1.7235 H   0  0  0  0  0  0  0  0  0  0  0  0
   -0.1733   -2.3788   -0.2660 H   0  0  0  0  0  0  0  0  0  0  0  0
   -2.6644   -2.1216    0.2726 H   0  0  0  0  0  0  0  0  0  0  0  0
   -3.2220    0.3510    0.5673 H   0  0  0  0  0  0  0  0  0  0  0  0
   -2.7192    0.3563   -1.1840 H   0  0  0  0  0  0  0  0  0  0  0  0
   -0.9423    0.7322    1.2345 H   0  0  0  0  0  0  0  0  0  0  0  0
   -1.1065    1.8385   -0.2301 H   0  0  0  0  0  0  0  0  0  0  0  0
  1  2  1  0
  2  3  1  0
  3  4  1  0
  3  5  1  0
  5  6  1  0
  6  7  2  0
  7  8  1  0
  8  9  1  0
  9  5  1  0
  1 10  1  0
  2 11  1  0
  2 12  1  0
  3 13  1  0
  4 14  1  0
  5 15  1  0
  6 16  1  0
  7 17  1  0
  8 18  1  0
  8 19  1  0
  9 20  1  0
  9 21  1  0
M  END
