
     RDKit          3D

 18 18  0  0  0  0  0  0  0  0999 V2000
    2.9177    0.0100    0.4142 O   0  0  0  0  0  0  0  0  0  0  0  0
    1.6931    0.6593    0.2886 C   0  0  0  0  0  0  0  0  0  0  0  0
    0.5882   -0.2923   -0.1077 C   0  0  0  0  0  0  0  0  0  0  0  0
    0.9201   -0.8668   -1.3346 O   0  0  0  0  0  0  0  0  0  0  0  0
   -0.7329    0.3892   -0.2681 C   0  0  0  0  0  0  0  0  0  0  0  0
   -1.8029   -0.6041   -0.6649 C   0  0  0  0  0  0  0  0  0  0  0  0
   -2.6959    0.1444    0.1028 O   0  0  0  0  0  0  0  0  0  0  0  0
   -1.6171    0.4080    0.9575 C   0  0  0  0  0  0  0  0  0  0  0  0
    2.7901   -0.9667    0.4079 H   0  0  0  0  0  0  0  0  0  0  0  0
    1.4702    1.0639    1.3199 H   0  0  0  0  0  0  0  0  0  0  0  0
    1.7564    1.5368   -0.3701 H   0  0  0  0  0  0  0  0  0  0  0  0
    0.5710   -1.1180    0.6316 H   0  0  0  0  0  0  0  0  0  0  0  0
    1.7210   -0.4462   -1.7350 H   0  0  0  0  0  0  0  0  0  0  0  0
   -0.7472    1.3351   -0.7980 H   0  0  0  0  0  0  0  0  0  0  0  0
   -1.6099   -1.5667   -0.1500 H   0  0  0  0  0  0  0  0  0  0  0  0
   -2.0210   -0.6601   -1.7392 H   0  0  0  0  0  0  0  0  0  0  0  0
   -1.4477   -0.4269    1.6351 H   0  0  0  0  0  0  0  0  0  0  0  0
   -1.7534    1.4011    1.4100 H   0  0  0  0  0  0  0  0  0  0  0  0
  1  2  1  0
  2  3  1  0
  3  4  1  0
  3  5  1  0
  5  6  1  0
  6  7  1  0
  7  8  1  0
  8  5  1  0
  1  9  1  0
  2 10  1  0
  2 11  1  0
  3 12  1  0
  4 13  1  0
  5 14  1  0
  6 15  1  0
  6 16  1  0
  8 17  1  0
  8 18  1  0
M  END
