
     RDKit          3D

 21 21  0  0  0  0  0  0  0  0999 V2000
    2.3308    0.8137   -1.3903 O   0  0  0  0  0  0  0  0  0  0  0  0
    2.2801    0.1166   -0.1722 C   0  0  0  0  0  0  0  0  0  0  0  0
    1.0784   -0.7784   -0.1628 C   0  0  0  0  0  0  0  0  0  0  0  0
    1.0262   -1.4700    1.0458 O   0  0  0  0  0  0  0  0  0  0  0  0
   -0.2047   -0.0462   -0.4534 C   0  0  0  0  0  0  0  0  0  0  0  0
   -1.4260   -0.9407   -0.4465 C   0  0  0  0  0  0  0  0  0  0  0  0
   -2.0367   -0.0895    0.6526 C   0  0  0  0  0  0  0  0  0  0  0  0
   -0.7912    0.7518    0.6542 C   0  0  0  0  0  0  0  0  0  0  0  0
   -1.1326    2.0730    0.2835 O   0  0  0  0  0  0  0  0  0  0  0  0
    2.0567    1.7591   -1.2030 H   0  0  0  0  0  0  0  0  0  0  0  0
    3.2239   -0.4634   -0.1242 H   0  0  0  0  0  0  0  0  0  0  0  0
    2.2917    0.8349    0.6730 H   0  0  0  0  0  0  0  0  0  0  0  0
    1.2149   -1.5407   -0.9580 H   0  0  0  0  0  0  0  0  0  0  0  0
    0.2806   -1.1763    1.6285 H   0  0  0  0  0  0  0  0  0  0  0  0
   -0.1520    0.4972   -1.4126 H   0  0  0  0  0  0  0  0  0  0  0  0
   -1.2463   -1.9587   -0.0664 H   0  0  0  0  0  0  0  0  0  0  0  0
   -1.9933   -0.9724   -1.3857 H   0  0  0  0  0  0  0  0  0  0  0  0
   -2.9523    0.3963    0.2831 H   0  0  0  0  0  0  0  0  0  0  0  0
   -2.2069   -0.6353    1.6155 H   0  0  0  0  0  0  0  0  0  0  0  0
   -0.2563    0.7916    1.6091 H   0  0  0  0  0  0  0  0  0  0  0  0
   -1.3850    2.0373   -0.6702 H   0  0  0  0  0  0  0  0  0  0  0  0
  1  2  1  0
  2  3  1  0
  3  4  1  0
  3  5  1  0
  5  6  1  0
  6  7  1  0
  7  8  1  0
  8  9  1  0
  8  5  1  0
  1 10  1  0
  2 11  1  0
  2 12  1  0
  3 13  1  0
  4 14  1  0
  5 15  1  0
  6 16  1  0
  6 17  1  0
  7 18  1  0
  7 19  1  0
  8 20  1  0
  9 21  1  0
M  END
