
     RDKit          3D

 20 20  0  0  0  0  0  0  0  0999 V2000
    3.1970    0.3556    0.4679 O   0  0  0  0  0  0  0  0  0  0  0  0
    1.9144   -0.1469    0.7108 C   0  0  0  0  0  0  0  0  0  0  0  0
    1.0027    0.1399   -0.4449 C   0  0  0  0  0  0  0  0  0  0  0  0
    1.5242   -0.4665   -1.5870 O   0  0  0  0  0  0  0  0  0  0  0  0
   -0.3551   -0.4196   -0.1820 C   0  0  0  0  0  0  0  0  0  0  0  0
   -1.0727    0.0978    1.0252 C   0  0  0  0  0  0  0  0  0  0  0  0
   -2.3593    0.0510    0.1892 C   0  0  0  0  0  0  0  0  0  0  0  0
   -1.4408    0.2246   -1.0290 C   0  0  0  0  0  0  0  0  0  0  0  0
    3.1332    1.3062    0.2007 H   0  0  0  0  0  0  0  0  0  0  0  0
    1.5007    0.2975    1.6433 H   0  0  0  0  0  0  0  0  0  0  0  0
    2.0174   -1.2334    0.8758 H   0  0  0  0  0  0  0  0  0  0  0  0
    0.9870    1.2286   -0.6487 H   0  0  0  0  0  0  0  0  0  0  0  0
    1.1031   -1.3566   -1.6681 H   0  0  0  0  0  0  0  0  0  0  0  0
   -0.3471   -1.5243   -0.2128 H   0  0  0  0  0  0  0  0  0  0  0  0
   -1.1230   -0.5624    1.8965 H   0  0  0  0  0  0  0  0  0  0  0  0
   -0.8632    1.1492    1.2966 H   0  0  0  0  0  0  0  0  0  0  0  0
   -2.7800   -0.9681    0.2250 H   0  0  0  0  0  0  0  0  0  0  0  0
   -3.0365    0.8902    0.3396 H   0  0  0  0  0  0  0  0  0  0  0  0
   -1.7758   -0.3560   -1.8931 H   0  0  0  0  0  0  0  0  0  0  0  0
   -1.2261    1.2933   -1.2050 H   0  0  0  0  0  0  0  0  0  0  0  0
  1  2  1  0
  2  3  1  0
  3  4  1  0
  3  5  1  0
  5  6  1  0
  6  7  1  0
  7  8  1  0
  8  5  1  0
  1  9  1  0
  2 10  1  0
  2 11  1  0
  3 12  1  0
  4 13  1  0
  5 14  1  0
  6 15  1  0
  6 16  1  0
  7 17  1  0
  7 18  1  0
  8 19  1  0
  8 20  1  0
M  END
