
     RDKit          3D

 18 18  0  0  0  0  0  0  0  0999 V2000
    2.8863   -0.1368   -0.1302 O   0  0  0  0  0  0  0  0  0  0  0  0
    1.6920    0.2126    0.5200 C   0  0  0  0  0  0  0  0  0  0  0  0
    0.5749   -0.1149   -0.4246 C   0  0  0  0  0  0  0  0  0  0  0  0
    0.7833    0.6459   -1.5831 O   0  0  0  0  0  0  0  0  0  0  0  0
   -0.7865    0.2261    0.1176 C   0  0  0  0  0  0  0  0  0  0  0  0
   -0.9999    1.5585    0.4688 O   0  0  0  0  0  0  0  0  0  0  0  0
   -1.6744   -0.7780    0.7058 C   0  0  0  0  0  0  0  0  0  0  0  0
   -1.9287   -0.4043   -0.7040 C   0  0  0  0  0  0  0  0  0  0  0  0
    2.7896   -1.1193   -0.3242 H   0  0  0  0  0  0  0  0  0  0  0  0
    1.7645    1.2847    0.7744 H   0  0  0  0  0  0  0  0  0  0  0  0
    1.6704   -0.4126    1.4473 H   0  0  0  0  0  0  0  0  0  0  0  0
    0.6445   -1.1919   -0.6644 H   0  0  0  0  0  0  0  0  0  0  0  0
    1.1616    1.5104   -1.2824 H   0  0  0  0  0  0  0  0  0  0  0  0
   -0.4424    1.8487    1.2149 H   0  0  0  0  0  0  0  0  0  0  0  0
   -2.4305   -0.4685    1.4344 H   0  0  0  0  0  0  0  0  0  0  0  0
   -1.2518   -1.8025    0.8847 H   0  0  0  0  0  0  0  0  0  0  0  0
   -1.6802   -1.1266   -1.4804 H   0  0  0  0  0  0  0  0  0  0  0  0
   -2.7727    0.2686   -0.9746 H   0  0  0  0  0  0  0  0  0  0  0  0
  1  2  1  0
  2  3  1  0
  3  4  1  0
  3  5  1  0
  5  6  1  0
  5  7  1  0
  7  8  1  0
  8  5  1  0
  1  9  1  0
  2 10  1  0
  2 11  1  0
  3 12  1  0
  4 13  1  0
  6 14  1  0
  7 15  1  0
  7 16  1  0
  8 17  1  0
  8 18  1  0
M  END
