
     RDKit          3D

 23 24  0  0  0  0  0  0  0  0999 V2000
   -1.6969    1.5527    1.3185 O   0  0  0  0  0  0  0  0  0  0  0  0
   -0.4397    1.5668    0.7741 C   0  0  0  0  0  0  0  0  0  0  0  0
    0.0505    0.2203    0.2858 C   0  0  0  0  0  0  0  0  0  0  0  0
   -0.8808   -0.2706   -0.7629 C   0  0  0  0  0  0  0  0  0  0  0  0
   -2.3288   -0.4595   -0.3004 C   0  0  0  0  0  0  0  0  0  0  0  0
   -1.4296   -1.6085   -0.8561 C   0  0  0  0  0  0  0  0  0  0  0  0
    1.4723    0.3360   -0.1470 C   0  0  0  0  0  0  0  0  0  0  0  0
    2.2571   -0.7793   -0.6742 C   0  0  0  0  0  0  0  0  0  0  0  0
    2.5347   -0.3544    0.7258 C   0  0  0  0  0  0  0  0  0  0  0  0
   -2.1979    2.4032    1.1235 H   0  0  0  0  0  0  0  0  0  0  0  0
   -0.4430    2.3136   -0.0648 H   0  0  0  0  0  0  0  0  0  0  0  0
    0.2778    2.0059    1.5276 H   0  0  0  0  0  0  0  0  0  0  0  0
    0.0179   -0.4645    1.1768 H   0  0  0  0  0  0  0  0  0  0  0  0
   -0.7921    0.3077   -1.7298 H   0  0  0  0  0  0  0  0  0  0  0  0
   -3.1313   -0.1267   -0.9892 H   0  0  0  0  0  0  0  0  0  0  0  0
   -2.5572   -0.5365    0.7717 H   0  0  0  0  0  0  0  0  0  0  0  0
   -1.2449   -2.4244   -0.1538 H   0  0  0  0  0  0  0  0  0  0  0  0
   -1.7322   -1.9850   -1.8709 H   0  0  0  0  0  0  0  0  0  0  0  0
    1.7881    1.3691   -0.4736 H   0  0  0  0  0  0  0  0  0  0  0  0
    3.0499   -0.5461   -1.4388 H   0  0  0  0  0  0  0  0  0  0  0  0
    1.8540   -1.7981   -0.8080 H   0  0  0  0  0  0  0  0  0  0  0  0
    3.4385    0.2200    0.9895 H   0  0  0  0  0  0  0  0  0  0  0  0
    2.1337   -0.9416    1.5764 H   0  0  0  0  0  0  0  0  0  0  0  0
  1  2  1  0
  2  3  1  0
  3  4  1  0
  4  5  1  0
  5  6  1  0
  3  7  1  0
  7  8  1  0
  8  9  1  0
  6  4  1  0
  9  7  1  0
  1 10  1  0
  2 11  1  0
  2 12  1  0
  3 13  1  0
  4 14  1  0
  5 15  1  0
  5 16  1  0
  6 17  1  0
  6 18  1  0
  7 19  1  0
  8 20  1  0
  8 21  1  0
  9 22  1  0
  9 23  1  0
M  END
