
     RDKit          3D

 17 17  0  0  0  0  0  0  0  0999 V2000
    0.7651    1.6568   -1.1657 O   0  0  0  0  0  0  0  0  0  0  0  0
    1.3283    0.7862   -0.2934 C   0  0  0  0  0  0  0  0  0  0  0  0
    0.7860   -0.5936   -0.2720 C   0  0  0  0  0  0  0  0  0  0  0  0
    1.4708   -1.3672    0.6741 O   0  0  0  0  0  0  0  0  0  0  0  0
   -0.6640   -0.7466   -0.0187 C   0  0  0  0  0  0  0  0  0  0  0  0
   -1.3665   -0.2963    1.1836 C   0  0  0  0  0  0  0  0  0  0  0  0
   -1.6572    0.3381   -0.1932 C   0  0  0  0  0  0  0  0  0  0  0  0
    1.3648    2.3212   -1.5672 H   0  0  0  0  0  0  0  0  0  0  0  0
    1.1983    1.2131    0.7466 H   0  0  0  0  0  0  0  0  0  0  0  0
    2.4267    0.7758   -0.4502 H   0  0  0  0  0  0  0  0  0  0  0  0
    1.0042   -1.0457   -1.2641 H   0  0  0  0  0  0  0  0  0  0  0  0
    1.5924   -2.2991    0.3845 H   0  0  0  0  0  0  0  0  0  0  0  0
   -1.0400   -1.7486   -0.4010 H   0  0  0  0  0  0  0  0  0  0  0  0
   -0.9477    0.4231    1.9133 H   0  0  0  0  0  0  0  0  0  0  0  0
   -2.1750   -0.9119    1.6315 H   0  0  0  0  0  0  0  0  0  0  0  0
   -2.6901    0.1043   -0.5781 H   0  0  0  0  0  0  0  0  0  0  0  0
   -1.3961    1.3902   -0.3300 H   0  0  0  0  0  0  0  0  0  0  0  0
  1  2  1  0
  2  3  1  0
  3  4  1  0
  3  5  1  0
  5  6  1  0
  6  7  1  0
  7  5  1  0
  1  8  1  0
  2  9  1  0
  2 10  1  0
  3 11  1  0
  4 12  1  0
  5 13  1  0
  6 14  1  0
  6 15  1  0
  7 16  1  0
  7 17  1  0
M  END
