
     RDKit          3D

 19 20  0  0  0  0  0  0  0  0999 V2000
    3.0304    0.5423   -0.5001 O   0  0  0  0  0  0  0  0  0  0  0  0
    1.6419    0.6061   -0.5711 C   0  0  0  0  0  0  0  0  0  0  0  0
    1.0558   -0.4413    0.3336 C   0  0  0  0  0  0  0  0  0  0  0  0
    1.5026   -0.1628    1.6434 O   0  0  0  0  0  0  0  0  0  0  0  0
   -0.4252   -0.4523    0.3693 C   0  0  0  0  0  0  0  0  0  0  0  0
   -1.1857    0.7984   -0.0131 C   0  0  0  0  0  0  0  0  0  0  0  0
   -2.3498   -0.1278   -0.3761 C   0  0  0  0  0  0  0  0  0  0  0  0
   -1.3802   -1.2828   -0.1008 C   0  0  0  0  0  0  0  0  0  0  0  0
   -1.0036   -1.3797    1.2082 O   0  0  0  0  0  0  0  0  0  0  0  0
    3.3996    1.4401   -0.6435 H   0  0  0  0  0  0  0  0  0  0  0  0
    1.2664    1.5978   -0.2001 H   0  0  0  0  0  0  0  0  0  0  0  0
    1.3261    0.4324   -1.6258 H   0  0  0  0  0  0  0  0  0  0  0  0
    1.4668   -1.4247    0.0388 H   0  0  0  0  0  0  0  0  0  0  0  0
    0.9015   -0.6382    2.3021 H   0  0  0  0  0  0  0  0  0  0  0  0
   -0.7201    1.2765   -0.9050 H   0  0  0  0  0  0  0  0  0  0  0  0
   -1.3689    1.4490    0.8476 H   0  0  0  0  0  0  0  0  0  0  0  0
   -3.1499   -0.0808    0.4084 H   0  0  0  0  0  0  0  0  0  0  0  0
   -2.6930   -0.0512   -1.4094 H   0  0  0  0  0  0  0  0  0  0  0  0
   -1.3147   -2.1010   -0.8065 H   0  0  0  0  0  0  0  0  0  0  0  0
  1  2  1  0
  2  3  1  0
  3  4  1  0
  3  5  1  0
  5  6  1  0
  6  7  1  0
  7  8  1  0
  8  9  1  0
  8  5  1  0
  9  5  1  0
  1 10  1  0
  2 11  1  0
  2 12  1  0
  3 13  1  0
  4 14  1  0
  6 15  1  0
  6 16  1  0
  7 17  1  0
  7 18  1  0
  8 19  1  0
M  END
