
     RDKit          3D

 19 20  0  0  0  0  0  0  0  0999 V2000
    3.0171   -0.5513    0.1122 O   0  0  0  0  0  0  0  0  0  0  0  0
    1.6870   -0.8176   -0.1343 C   0  0  0  0  0  0  0  0  0  0  0  0
    0.8223    0.4201    0.1631 C   0  0  0  0  0  0  0  0  0  0  0  0
    1.3208    1.4056   -0.7053 O   0  0  0  0  0  0  0  0  0  0  0  0
   -0.5136    0.1574   -0.0549 C   0  0  0  0  0  0  0  0  0  0  0  0
   -1.6793    1.0619    0.0469 C   0  0  0  0  0  0  0  0  0  0  0  0
   -2.1865   -0.2611   -0.4413 C   0  0  0  0  0  0  0  0  0  0  0  0
   -1.3435   -0.8945    0.6237 C   0  0  0  0  0  0  0  0  0  0  0  0
   -1.0644   -0.3076   -1.2496 O   0  0  0  0  0  0  0  0  0  0  0  0
    3.4818   -0.1099   -0.6508 H   0  0  0  0  0  0  0  0  0  0  0  0
    1.5169   -1.1315   -1.1933 H   0  0  0  0  0  0  0  0  0  0  0  0
    1.3867   -1.6604    0.5228 H   0  0  0  0  0  0  0  0  0  0  0  0
    1.1033    0.7145    1.1950 H   0  0  0  0  0  0  0  0  0  0  0  0
    2.0786    1.9009   -0.3189 H   0  0  0  0  0  0  0  0  0  0  0  0
   -1.7630    1.9096   -0.6268 H   0  0  0  0  0  0  0  0  0  0  0  0
   -2.0001    1.2260    1.1065 H   0  0  0  0  0  0  0  0  0  0  0  0
   -3.1343   -0.4973   -0.6906 H   0  0  0  0  0  0  0  0  0  0  0  0
   -1.0331   -1.9392    0.4578 H   0  0  0  0  0  0  0  0  0  0  0  0
   -1.6968   -0.6257    1.6258 H   0  0  0  0  0  0  0  0  0  0  0  0
  1  2  1  0
  2  3  1  0
  3  4  1  0
  3  5  1  0
  5  6  1  0
  6  7  1  0
  7  8  1  0
  7  9  1  0
  8  5  1  0
  9  5  1  0
  1 10  1  0
  2 11  1  0
  2 12  1  0
  3 13  1  0
  4 14  1  0
  6 15  1  0
  6 16  1  0
  7 17  1  0
  8 18  1  0
  8 19  1  0
M  END
