
     RDKit          3D

 23 23  0  0  0  0  0  0  0  0999 V2000
   -1.3017    1.4504   -1.2891 O   0  0  0  0  0  0  0  0  0  0  0  0
   -1.0686    0.0822   -1.2947 C   0  0  0  0  0  0  0  0  0  0  0  0
   -0.8768   -0.4685    0.0642 C   0  0  0  0  0  0  0  0  0  0  0  0
   -2.1416   -0.2362    0.9377 C   0  0  0  0  0  0  0  0  0  0  0  0
   -1.8357   -0.7974    2.1873 O   0  0  0  0  0  0  0  0  0  0  0  0
    0.3122   -0.0174    0.8447 C   0  0  0  0  0  0  0  0  0  0  0  0
    1.5874   -0.3340    0.1897 C   0  0  0  0  0  0  0  0  0  0  0  0
    1.8843    0.3013   -1.1602 C   0  0  0  0  0  0  0  0  0  0  0  0
    2.7678    0.4940    0.0451 C   0  0  0  0  0  0  0  0  0  0  0  0
   -1.1003    1.8482   -0.4291 H   0  0  0  0  0  0  0  0  0  0  0  0
   -0.3216   -0.2537   -2.0139 H   0  0  0  0  0  0  0  0  0  0  0  0
   -2.0522   -0.3615   -1.7131 H   0  0  0  0  0  0  0  0  0  0  0  0
   -0.8965   -1.5982   -0.0509 H   0  0  0  0  0  0  0  0  0  0  0  0
   -2.9456   -0.7762    0.4199 H   0  0  0  0  0  0  0  0  0  0  0  0
   -2.2733    0.8504    0.9813 H   0  0  0  0  0  0  0  0  0  0  0  0
   -2.1790   -1.7200    2.2774 H   0  0  0  0  0  0  0  0  0  0  0  0
    0.1599    1.1021    0.9910 H   0  0  0  0  0  0  0  0  0  0  0  0
    0.2520   -0.4194    1.9067 H   0  0  0  0  0  0  0  0  0  0  0  0
    1.7993   -1.4671    0.2186 H   0  0  0  0  0  0  0  0  0  0  0  0
    2.2212   -0.3861   -1.9653 H   0  0  0  0  0  0  0  0  0  0  0  0
    1.3719    1.2017   -1.5083 H   0  0  0  0  0  0  0  0  0  0  0  0
    2.8690    1.5199    0.3929 H   0  0  0  0  0  0  0  0  0  0  0  0
    3.7678   -0.0143   -0.0318 H   0  0  0  0  0  0  0  0  0  0  0  0
  1  2  1  0
  2  3  1  0
  3  4  1  0
  4  5  1  0
  3  6  1  0
  6  7  1  0
  7  8  1  0
  8  9  1  0
  9  7  1  0
  1 10  1  0
  2 11  1  0
  2 12  1  0
  3 13  1  0
  4 14  1  0
  4 15  1  0
  5 16  1  0
  6 17  1  0
  6 18  1  0
  7 19  1  0
  8 20  1  0
  8 21  1  0
  9 22  1  0
  9 23  1  0
M  END
