
     RDKit          3D

 21 21  0  0  0  0  0  0  0  0999 V2000
    2.4632   -1.2631    0.4086 O   0  0  0  0  0  0  0  0  0  0  0  0
    2.4981    0.0659   -0.0217 C   0  0  0  0  0  0  0  0  0  0  0  0
    1.1296    0.6574    0.2467 C   0  0  0  0  0  0  0  0  0  0  0  0
    0.8221    0.6046    1.6084 O   0  0  0  0  0  0  0  0  0  0  0  0
    0.0322   -0.1069   -0.4751 C   0  0  0  0  0  0  0  0  0  0  0  0
    0.0401   -1.4077    0.0013 O   0  0  0  0  0  0  0  0  0  0  0  0
   -1.2678    0.6036   -0.1680 C   0  0  0  0  0  0  0  0  0  0  0  0
   -2.5072   -0.0298   -0.8178 C   0  0  0  0  0  0  0  0  0  0  0  0
   -2.3209   -0.0780    0.6395 C   0  0  0  0  0  0  0  0  0  0  0  0
    3.1424   -1.7809   -0.1165 H   0  0  0  0  0  0  0  0  0  0  0  0
    2.6574    0.1263   -1.1156 H   0  0  0  0  0  0  0  0  0  0  0  0
    3.2271    0.6639    0.5288 H   0  0  0  0  0  0  0  0  0  0  0  0
    1.0635    1.7100   -0.1311 H   0  0  0  0  0  0  0  0  0  0  0  0
    0.9465    1.4659    2.0664 H   0  0  0  0  0  0  0  0  0  0  0  0
    0.2486   -0.0656   -1.5656 H   0  0  0  0  0  0  0  0  0  0  0  0
   -0.3377   -2.0626   -0.6343 H   0  0  0  0  0  0  0  0  0  0  0  0
   -1.2729    1.7058   -0.0946 H   0  0  0  0  0  0  0  0  0  0  0  0
   -2.3514   -0.9654   -1.4088 H   0  0  0  0  0  0  0  0  0  0  0  0
   -3.2069    0.6896   -1.3054 H   0  0  0  0  0  0  0  0  0  0  0  0
   -2.0662   -1.0700    1.0718 H   0  0  0  0  0  0  0  0  0  0  0  0
   -2.9401    0.5372    1.3399 H   0  0  0  0  0  0  0  0  0  0  0  0
  1  2  1  0
  2  3  1  0
  3  4  1  0
  3  5  1  0
  5  6  1  0
  5  7  1  0
  7  8  1  0
  8  9  1  0
  9  7  1  0
  1 10  1  0
  2 11  1  0
  2 12  1  0
  3 13  1  0
  4 14  1  0
  5 15  1  0
  6 16  1  0
  7 17  1  0
  8 18  1  0
  8 19  1  0
  9 20  1  0
  9 21  1  0
M  END
