
     RDKit          3D

 21 21  0  0  0  0  0  0  0  0999 V2000
   -3.6187   -0.6045    0.4270 O   0  0  0  0  0  0  0  0  0  0  0  0
   -2.3660   -0.1690    0.8455 C   0  0  0  0  0  0  0  0  0  0  0  0
   -1.3435   -0.2396   -0.2678 C   0  0  0  0  0  0  0  0  0  0  0  0
   -1.6810    0.5316   -1.3474 O   0  0  0  0  0  0  0  0  0  0  0  0
    0.0439    0.0472    0.2612 C   0  0  0  0  0  0  0  0  0  0  0  0
    1.0244   -0.0351   -0.8848 C   0  0  0  0  0  0  0  0  0  0  0  0
    2.4321    0.2320   -0.4754 C   0  0  0  0  0  0  0  0  0  0  0  0
    3.1187   -0.5628    0.4955 C   0  0  0  0  0  0  0  0  0  0  0  0
    3.3379   -0.8971   -0.8833 O   0  0  0  0  0  0  0  0  0  0  0  0
   -4.2641    0.1028    0.6813 H   0  0  0  0  0  0  0  0  0  0  0  0
   -2.3995    0.8660    1.2584 H   0  0  0  0  0  0  0  0  0  0  0  0
   -2.0734   -0.8198    1.6940 H   0  0  0  0  0  0  0  0  0  0  0  0
   -1.3228   -1.3075   -0.6177 H   0  0  0  0  0  0  0  0  0  0  0  0
   -2.4475    1.1467   -1.1763 H   0  0  0  0  0  0  0  0  0  0  0  0
    0.1000    0.9982    0.8117 H   0  0  0  0  0  0  0  0  0  0  0  0
    0.2823   -0.7822    0.9830 H   0  0  0  0  0  0  0  0  0  0  0  0
    0.7302    0.6978   -1.6735 H   0  0  0  0  0  0  0  0  0  0  0  0
    0.8775   -1.0483   -1.3461 H   0  0  0  0  0  0  0  0  0  0  0  0
    2.9357    1.1641   -0.8519 H   0  0  0  0  0  0  0  0  0  0  0  0
    2.5782   -1.3015    1.1010 H   0  0  0  0  0  0  0  0  0  0  0  0
    4.0558   -0.2091    0.9655 H   0  0  0  0  0  0  0  0  0  0  0  0
  1  2  1  0
  2  3  1  0
  3  4  1  0
  3  5  1  0
  5  6  1  0
  6  7  1  0
  7  8  1  0
  8  9  1  0
  9  7  1  0
  1 10  1  0
  2 11  1  0
  2 12  1  0
  3 13  1  0
  4 14  1  0
  5 15  1  0
  5 16  1  0
  6 17  1  0
  6 18  1  0
  7 19  1  0
  8 20  1  0
  8 21  1  0
M  END
