
     RDKit          3D

 18 17  0  0  0  0  0  0  0  0999 V2000
   -2.3279    0.9062   -0.5015 O   0  0  0  0  0  0  0  0  0  0  0  0
   -1.9711   -0.2393    0.2392 C   0  0  0  0  0  0  0  0  0  0  0  0
   -0.5187   -0.1498    0.6570 C   0  0  0  0  0  0  0  0  0  0  0  0
   -0.2203   -1.2991    1.3810 O   0  0  0  0  0  0  0  0  0  0  0  0
    0.3211    0.0076   -0.5702 C   0  0  0  0  0  0  0  0  0  0  0  0
    0.1334   -1.0744   -1.4214 O   0  0  0  0  0  0  0  0  0  0  0  0
    1.7882    0.2038   -0.2509 C   0  0  0  0  0  0  0  0  0  0  0  0
    2.0017    1.2682    0.5901 O   0  0  0  0  0  0  0  0  0  0  0  0
   -3.0753    1.3956   -0.0975 H   0  0  0  0  0  0  0  0  0  0  0  0
   -2.6618   -0.2680    1.1134 H   0  0  0  0  0  0  0  0  0  0  0  0
   -2.1536   -1.1017   -0.4280 H   0  0  0  0  0  0  0  0  0  0  0  0
   -0.4141    0.7018    1.3491 H   0  0  0  0  0  0  0  0  0  0  0  0
    0.7610   -1.3280    1.4958 H   0  0  0  0  0  0  0  0  0  0  0  0
   -0.0207    0.9236   -1.0942 H   0  0  0  0  0  0  0  0  0  0  0  0
    1.0065   -1.4590   -1.7409 H   0  0  0  0  0  0  0  0  0  0  0  0
    2.2380   -0.7329    0.1761 H   0  0  0  0  0  0  0  0  0  0  0  0
    2.3486    0.3971   -1.1885 H   0  0  0  0  0  0  0  0  0  0  0  0
    2.7649    1.8481    0.2915 H   0  0  0  0  0  0  0  0  0  0  0  0
  1  2  1  0
  2  3  1  0
  3  4  1  0
  3  5  1  0
  5  6  1  0
  5  7  1  0
  7  8  1  0
  1  9  1  0
  2 10  1  0
  2 11  1  0
  3 12  1  0
  4 13  1  0
  5 14  1  0
  6 15  1  0
  7 16  1  0
  7 17  1  0
  8 18  1  0
M  END
