
     RDKit          3D

 21 22  0  0  0  0  0  0  0  0999 V2000
   -1.8846   -1.5951    0.1883 O   0  0  0  0  0  0  0  0  0  0  0  0
   -1.8017   -0.4241    0.9120 C   0  0  0  0  0  0  0  0  0  0  0  0
   -1.0014    0.6526    0.1630 C   0  0  0  0  0  0  0  0  0  0  0  0
   -1.7025    0.8586   -1.0319 O   0  0  0  0  0  0  0  0  0  0  0  0
    0.3021    0.3015   -0.0206 C   0  0  0  0  0  0  0  0  0  0  0  0
    0.8008   -0.9243   -0.7831 C   0  0  0  0  0  0  0  0  0  0  0  0
    2.0560   -0.2642   -0.2721 C   0  0  0  0  0  0  0  0  0  0  0  0
    1.3137   -0.0914    1.0252 C   0  0  0  0  0  0  0  0  0  0  0  0
    1.4066    1.0279   -0.6987 C   0  0  0  0  0  0  0  0  0  0  0  0
   -1.8832   -1.4223   -0.8049 H   0  0  0  0  0  0  0  0  0  0  0  0
   -1.3012   -0.6693    1.8858 H   0  0  0  0  0  0  0  0  0  0  0  0
   -2.8217   -0.0140    1.0700 H   0  0  0  0  0  0  0  0  0  0  0  0
   -1.1363    1.5741    0.7666 H   0  0  0  0  0  0  0  0  0  0  0  0
   -2.3704    1.5668   -0.9315 H   0  0  0  0  0  0  0  0  0  0  0  0
    0.5386   -1.8857   -0.3451 H   0  0  0  0  0  0  0  0  0  0  0  0
    0.6950   -0.8139   -1.8744 H   0  0  0  0  0  0  0  0  0  0  0  0
    3.0007   -0.5508   -0.4119 H   0  0  0  0  0  0  0  0  0  0  0  0
    1.0394   -1.0317    1.5067 H   0  0  0  0  0  0  0  0  0  0  0  0
    1.6656    0.7217    1.6834 H   0  0  0  0  0  0  0  0  0  0  0  0
    1.7765    1.9385   -0.2215 H   0  0  0  0  0  0  0  0  0  0  0  0
    1.3081    1.0450   -1.8055 H   0  0  0  0  0  0  0  0  0  0  0  0
  1  2  1  0
  2  3  1  0
  3  4  1  0
  3  5  1  0
  5  6  1  0
  6  7  1  0
  7  8  1  0
  7  9  1  0
  8  5  1  0
  9  5  1  0
  1 10  1  0
  2 11  1  0
  2 12  1  0
  3 13  1  0
  4 14  1  0
  6 15  1  0
  6 16  1  0
  7 17  1  0
  8 18  1  0
  8 19  1  0
  9 20  1  0
  9 21  1  0
M  END
