
     RDKit          3D

 21 21  0  0  0  0  0  0  0  0999 V2000
    2.4237    1.0383   -0.3992 O   0  0  0  0  0  0  0  0  0  0  0  0
    2.0655    0.6319    0.8724 C   0  0  0  0  0  0  0  0  0  0  0  0
    1.0100   -0.4764    0.8190 C   0  0  0  0  0  0  0  0  0  0  0  0
    1.6206   -1.5339    0.1048 O   0  0  0  0  0  0  0  0  0  0  0  0
   -0.1916   -0.0621    0.0431 C   0  0  0  0  0  0  0  0  0  0  0  0
   -1.1681   -1.2264    0.0529 C   0  0  0  0  0  0  0  0  0  0  0  0
   -2.4775   -0.5348   -0.1382 C   0  0  0  0  0  0  0  0  0  0  0  0
   -2.3801    0.7378    0.2201 C   0  0  0  0  0  0  0  0  0  0  0  0
   -0.9973    1.0149    0.6843 C   0  0  0  0  0  0  0  0  0  0  0  0
    3.3753    0.8420   -0.6201 H   0  0  0  0  0  0  0  0  0  0  0  0
    2.9872    0.2717    1.3709 H   0  0  0  0  0  0  0  0  0  0  0  0
    1.6678    1.5275    1.4049 H   0  0  0  0  0  0  0  0  0  0  0  0
    0.7968   -0.8631    1.8182 H   0  0  0  0  0  0  0  0  0  0  0  0
    1.4838   -1.4542   -0.8554 H   0  0  0  0  0  0  0  0  0  0  0  0
    0.1082    0.2330   -0.9603 H   0  0  0  0  0  0  0  0  0  0  0  0
   -0.9053   -1.8844   -0.7819 H   0  0  0  0  0  0  0  0  0  0  0  0
   -1.1729   -1.6916    1.0394 H   0  0  0  0  0  0  0  0  0  0  0  0
   -3.3734   -1.0228   -0.5186 H   0  0  0  0  0  0  0  0  0  0  0  0
   -3.2045    1.4504    0.1714 H   0  0  0  0  0  0  0  0  0  0  0  0
   -0.9677    0.9639    1.7989 H   0  0  0  0  0  0  0  0  0  0  0  0
   -0.7007    2.0384    0.3455 H   0  0  0  0  0  0  0  0  0  0  0  0
  1  2  1  0
  2  3  1  0
  3  4  1  0
  3  5  1  0
  5  6  1  0
  6  7  1  0
  7  8  2  0
  8  9  1  0
  9  5  1  0
  1 10  1  0
  2 11  1  0
  2 12  1  0
  3 13  1  0
  4 14  1  0
  5 15  1  0
  6 16  1  0
  6 17  1  0
  7 18  1  0
  8 19  1  0
  9 20  1  0
  9 21  1  0
M  END
