
     RDKit          3D

 16 18  0  0  0  0  0  0  0  0999 V2000
   -2.8672    0.2025   -0.6551 O   0  0  0  0  0  0  0  0  0  0  0  0
   -1.9170    0.2037    0.3451 C   0  0  0  0  0  0  0  0  0  0  0  0
   -0.5307    0.4105   -0.2284 C   0  0  0  0  0  0  0  0  0  0  0  0
    0.5685    0.4303    0.7458 C   0  0  0  0  0  0  0  0  0  0  0  0
    1.9785    0.5299    0.1869 C   0  0  0  0  0  0  0  0  0  0  0  0
    2.7572   -0.5782    0.4547 O   0  0  0  0  0  0  0  0  0  0  0  0
    1.8204   -0.5567   -0.6225 C   0  0  0  0  0  0  0  0  0  0  0  0
    0.3705   -0.7360   -0.2736 C   0  0  0  0  0  0  0  0  0  0  0  0
   -2.6877   -0.5564   -1.2692 H   0  0  0  0  0  0  0  0  0  0  0  0
   -2.0093   -0.7163    0.9388 H   0  0  0  0  0  0  0  0  0  0  0  0
   -2.0965    1.0907    1.0206 H   0  0  0  0  0  0  0  0  0  0  0  0
   -0.5132    1.2220   -1.0007 H   0  0  0  0  0  0  0  0  0  0  0  0
    0.4437    0.1243    1.8073 H   0  0  0  0  0  0  0  0  0  0  0  0
    2.4075    1.5057   -0.0275 H   0  0  0  0  0  0  0  0  0  0  0  0
    2.2294   -0.8847   -1.5774 H   0  0  0  0  0  0  0  0  0  0  0  0
    0.0459   -1.6913    0.1551 H   0  0  0  0  0  0  0  0  0  0  0  0
  1  2  1  0
  2  3  1  0
  3  4  1  0
  4  5  1  0
  5  6  1  0
  6  7  1  0
  7  8  1  0
  8  3  1  0
  8  4  1  0
  7  5  1  0
  1  9  1  0
  2 10  1  0
  2 11  1  0
  3 12  1  0
  4 13  1  0
  5 14  1  0
  7 15  1  0
  8 16  1  0
M  END
