
     RDKit          3D

 21 21  0  0  0  0  0  0  0  0999 V2000
    2.7611   -1.0498    0.1980 O   0  0  0  0  0  0  0  0  0  0  0  0
    2.2069    0.0649   -0.4279 C   0  0  0  0  0  0  0  0  0  0  0  0
    0.7443    0.2421    0.0195 C   0  0  0  0  0  0  0  0  0  0  0  0
    0.0779   -1.0424   -0.3311 C   0  0  0  0  0  0  0  0  0  0  0  0
   -1.3582   -1.1549   -0.1083 C   0  0  0  0  0  0  0  0  0  0  0  0
   -2.0990    0.0786    0.2931 C   0  0  0  0  0  0  0  0  0  0  0  0
   -1.9325    1.1473   -0.5483 O   0  0  0  0  0  0  0  0  0  0  0  0
   -0.8393    1.8872   -0.0407 C   0  0  0  0  0  0  0  0  0  0  0  0
    0.2755    1.3468   -0.6328 O   0  0  0  0  0  0  0  0  0  0  0  0
    3.7199   -1.0567   -0.0513 H   0  0  0  0  0  0  0  0  0  0  0  0
    2.7766    0.9832   -0.2707 H   0  0  0  0  0  0  0  0  0  0  0  0
    2.1693   -0.0923   -1.5424 H   0  0  0  0  0  0  0  0  0  0  0  0
    0.8035    0.3638    1.1268 H   0  0  0  0  0  0  0  0  0  0  0  0
    0.6238   -1.8458    0.2489 H   0  0  0  0  0  0  0  0  0  0  0  0
    0.3491   -1.2723   -1.4044 H   0  0  0  0  0  0  0  0  0  0  0  0
   -1.8597   -1.5455   -1.0413 H   0  0  0  0  0  0  0  0  0  0  0  0
   -1.5921   -1.9336    0.6721 H   0  0  0  0  0  0  0  0  0  0  0  0
   -1.9087    0.3975    1.3400 H   0  0  0  0  0  0  0  0  0  0  0  0
   -3.1988   -0.1834    0.2639 H   0  0  0  0  0  0  0  0  0  0  0  0
   -0.9634    2.9599   -0.1720 H   0  0  0  0  0  0  0  0  0  0  0  0
   -0.7563    1.7054    1.0638 H   0  0  0  0  0  0  0  0  0  0  0  0
  1  2  1  0
  2  3  1  0
  3  4  1  0
  4  5  1  0
  5  6  1  0
  6  7  1  0
  7  8  1  0
  8  9  1  0
  9  3  1  0
  1 10  1  0
  2 11  1  0
  2 12  1  0
  3 13  1  0
  4 14  1  0
  4 15  1  0
  5 16  1  0
  5 17  1  0
  6 18  1  0
  6 19  1  0
  8 20  1  0
  8 21  1  0
M  END
