
     RDKit          3D

 21 21  0  0  0  0  0  0  0  0999 V2000
    2.9733    1.2801   -0.0322 O   0  0  0  0  0  0  0  0  0  0  0  0
    2.3829    0.0851   -0.4348 C   0  0  0  0  0  0  0  0  0  0  0  0
    0.9217    0.0469   -0.0639 C   0  0  0  0  0  0  0  0  0  0  0  0
    0.3771    1.0740    0.5621 C   0  0  0  0  0  0  0  0  0  0  0  0
   -1.0587    1.0145    0.9163 C   0  0  0  0  0  0  0  0  0  0  0  0
   -1.7993    0.4484   -0.2673 C   0  0  0  0  0  0  0  0  0  0  0  0
   -1.2975   -0.9057   -0.6835 C   0  0  0  0  0  0  0  0  0  0  0  0
   -2.0976   -1.8896   -0.0739 O   0  0  0  0  0  0  0  0  0  0  0  0
    0.1387   -1.1452   -0.4138 C   0  0  0  0  0  0  0  0  0  0  0  0
    2.9548    1.3351    0.9511 H   0  0  0  0  0  0  0  0  0  0  0  0
    2.8977   -0.7202    0.1366 H   0  0  0  0  0  0  0  0  0  0  0  0
    2.5241   -0.0048   -1.5232 H   0  0  0  0  0  0  0  0  0  0  0  0
    1.0108    1.9430    0.8005 H   0  0  0  0  0  0  0  0  0  0  0  0
   -1.5013    2.0021    1.1366 H   0  0  0  0  0  0  0  0  0  0  0  0
   -1.2600    0.3465    1.7760 H   0  0  0  0  0  0  0  0  0  0  0  0
   -1.7305    1.1596   -1.1126 H   0  0  0  0  0  0  0  0  0  0  0  0
   -2.8627    0.3455    0.0328 H   0  0  0  0  0  0  0  0  0  0  0  0
   -1.4767   -0.9881   -1.7809 H   0  0  0  0  0  0  0  0  0  0  0  0
   -1.9245   -1.9330    0.8972 H   0  0  0  0  0  0  0  0  0  0  0  0
    0.6229   -1.6484   -1.2926 H   0  0  0  0  0  0  0  0  0  0  0  0
    0.2050   -1.8458    0.4696 H   0  0  0  0  0  0  0  0  0  0  0  0
  1  2  1  0
  2  3  1  0
  3  4  2  0
  4  5  1  0
  5  6  1  0
  6  7  1  0
  7  8  1  0
  7  9  1  0
  9  3  1  0
  1 10  1  0
  2 11  1  0
  2 12  1  0
  4 13  1  0
  5 14  1  0
  5 15  1  0
  6 16  1  0
  6 17  1  0
  7 18  1  0
  8 19  1  0
  9 20  1  0
  9 21  1  0
M  END
