
     RDKit          3D

 19 19  0  0  0  0  0  0  0  0999 V2000
    2.4475    1.5976   -0.1006 O   0  0  0  0  0  0  0  0  0  0  0  0
    2.1121    0.2578   -0.0211 C   0  0  0  0  0  0  0  0  0  0  0  0
    0.6428    0.1000   -0.0209 C   0  0  0  0  0  0  0  0  0  0  0  0
   -0.2303    1.0950   -0.0871 C   0  0  0  0  0  0  0  0  0  0  0  0
   -1.6338    0.5983   -0.0658 C   0  0  0  0  0  0  0  0  0  0  0  0
   -2.2166    1.1114    1.1068 O   0  0  0  0  0  0  0  0  0  0  0  0
   -1.5500   -0.8926   -0.0108 C   0  0  0  0  0  0  0  0  0  0  0  0
   -0.0963   -1.2054    0.0541 C   0  0  0  0  0  0  0  0  0  0  0  0
    0.3085   -2.0596   -0.9769 O   0  0  0  0  0  0  0  0  0  0  0  0
    3.0463    1.8987    0.6321 H   0  0  0  0  0  0  0  0  0  0  0  0
    2.5818   -0.1265    0.9267 H   0  0  0  0  0  0  0  0  0  0  0  0
    2.5899   -0.3435   -0.8418 H   0  0  0  0  0  0  0  0  0  0  0  0
   -0.0014    2.1581   -0.1504 H   0  0  0  0  0  0  0  0  0  0  0  0
   -2.1971    0.9755   -0.9396 H   0  0  0  0  0  0  0  0  0  0  0  0
   -2.0484    2.0773    1.1129 H   0  0  0  0  0  0  0  0  0  0  0  0
   -2.0222   -1.2628    0.9429 H   0  0  0  0  0  0  0  0  0  0  0  0
   -2.0429   -1.3014   -0.9083 H   0  0  0  0  0  0  0  0  0  0  0  0
    0.1945   -1.6802    1.0003 H   0  0  0  0  0  0  0  0  0  0  0  0
    0.1154   -2.9975   -0.7304 H   0  0  0  0  0  0  0  0  0  0  0  0
  1  2  1  0
  2  3  1  0
  3  4  2  0
  4  5  1  0
  5  6  1  0
  5  7  1  0
  7  8  1  0
  8  9  1  0
  8  3  1  0
  1 10  1  0
  2 11  1  0
  2 12  1  0
  4 13  1  0
  5 14  1  0
  6 15  1  0
  7 16  1  0
  7 17  1  0
  8 18  1  0
  9 19  1  0
M  END
