
     RDKit          3D

 21 22  0  0  0  0  0  0  0  0999 V2000
    2.8387    0.9267   -0.3457 O   0  0  0  0  0  0  0  0  0  0  0  0
    1.9531    0.0547    0.2671 C   0  0  0  0  0  0  0  0  0  0  0  0
    0.7045   -0.1799   -0.5575 C   0  0  0  0  0  0  0  0  0  0  0  0
   -0.0154    1.1119   -0.7797 C   0  0  0  0  0  0  0  0  0  0  0  0
   -1.0450    1.4091    0.2147 C   0  0  0  0  0  0  0  0  0  0  0  0
   -1.6452    0.5050    0.9552 C   0  0  0  0  0  0  0  0  0  0  0  0
   -1.2910   -0.9031    0.8079 C   0  0  0  0  0  0  0  0  0  0  0  0
   -1.4950   -1.5120   -0.5418 C   0  0  0  0  0  0  0  0  0  0  0  0
   -0.0933   -1.2455    0.1001 C   0  0  0  0  0  0  0  0  0  0  0  0
    3.0255    1.6863    0.2656 H   0  0  0  0  0  0  0  0  0  0  0  0
    1.7174    0.4044    1.2980 H   0  0  0  0  0  0  0  0  0  0  0  0
    2.4947   -0.9160    0.3987 H   0  0  0  0  0  0  0  0  0  0  0  0
    1.0502   -0.5683   -1.5396 H   0  0  0  0  0  0  0  0  0  0  0  0
    0.6934    1.9740   -0.8136 H   0  0  0  0  0  0  0  0  0  0  0  0
   -0.5076    1.1155   -1.7932 H   0  0  0  0  0  0  0  0  0  0  0  0
   -1.3386    2.4660    0.3524 H   0  0  0  0  0  0  0  0  0  0  0  0
   -2.4134    0.8228    1.6832 H   0  0  0  0  0  0  0  0  0  0  0  0
   -1.5666   -1.5448    1.6971 H   0  0  0  0  0  0  0  0  0  0  0  0
   -1.7730   -2.5786   -0.6389 H   0  0  0  0  0  0  0  0  0  0  0  0
   -1.7748   -0.8712   -1.3865 H   0  0  0  0  0  0  0  0  0  0  0  0
    0.4814   -2.1569    0.3562 H   0  0  0  0  0  0  0  0  0  0  0  0
  1  2  1  0
  2  3  1  0
  3  4  1  0
  4  5  1  0
  5  6  2  0
  6  7  1  0
  7  8  1  0
  8  9  1  0
  9  3  1  0
  9  7  1  0
  1 10  1  0
  2 11  1  0
  2 12  1  0
  3 13  1  0
  4 14  1  0
  4 15  1  0
  5 16  1  0
  6 17  1  0
  7 18  1  0
  8 19  1  0
  8 20  1  0
  9 21  1  0
M  END
