
     RDKit          3D

 19 19  0  0  0  0  0  0  0  0999 V2000
   -2.4664   -0.0155   -0.3008 O   0  0  0  0  0  0  0  0  0  0  0  0
   -1.2767   -0.5871   -0.7413 C   0  0  0  0  0  0  0  0  0  0  0  0
   -0.1887   -0.3633    0.2720 C   0  0  0  0  0  0  0  0  0  0  0  0
   -0.4958   -0.9219    1.4987 O   0  0  0  0  0  0  0  0  0  0  0  0
    1.2068   -0.6649   -0.2365 C   0  0  0  0  0  0  0  0  0  0  0  0
    2.0939   -0.7271    0.8294 O   0  0  0  0  0  0  0  0  0  0  0  0
    1.2107    0.7400   -0.8091 C   0  0  0  0  0  0  0  0  0  0  0  0
    0.2478    1.0850    0.3115 C   0  0  0  0  0  0  0  0  0  0  0  0
   -0.7333    2.0009   -0.0377 O   0  0  0  0  0  0  0  0  0  0  0  0
   -3.0002   -0.7158    0.1697 H   0  0  0  0  0  0  0  0  0  0  0  0
   -1.0375   -0.1115   -1.7112 H   0  0  0  0  0  0  0  0  0  0  0  0
   -1.4554   -1.6724   -0.9239 H   0  0  0  0  0  0  0  0  0  0  0  0
   -0.1414   -0.3662    2.2188 H   0  0  0  0  0  0  0  0  0  0  0  0
    1.2730   -1.4760   -0.9678 H   0  0  0  0  0  0  0  0  0  0  0  0
    2.3358   -1.6483    1.0357 H   0  0  0  0  0  0  0  0  0  0  0  0
    2.1945    1.2621   -0.7251 H   0  0  0  0  0  0  0  0  0  0  0  0
    0.7730    0.8161   -1.8362 H   0  0  0  0  0  0  0  0  0  0  0  0
    0.8111    1.2945    1.2322 H   0  0  0  0  0  0  0  0  0  0  0  0
   -1.3513    2.0713    0.7216 H   0  0  0  0  0  0  0  0  0  0  0  0
  1  2  1  0
  2  3  1  0
  3  4  1  0
  3  5  1  0
  5  6  1  0
  5  7  1  0
  7  8  1  0
  8  9  1  0
  8  3  1  0
  1 10  1  0
  2 11  1  0
  2 12  1  0
  4 13  1  0
  5 14  1  0
  6 15  1  0
  7 16  1  0
  7 17  1  0
  8 18  1  0
  9 19  1  0
M  END
