
     RDKit          3D

 19 19  0  0  0  0  0  0  0  0999 V2000
    2.8171    0.4507   -0.0525 O   0  0  0  0  0  0  0  0  0  0  0  0
    1.8625   -0.5471   -0.2413 C   0  0  0  0  0  0  0  0  0  0  0  0
    0.4728    0.0439   -0.3058 C   0  0  0  0  0  0  0  0  0  0  0  0
    0.3458    0.9431   -1.3434 O   0  0  0  0  0  0  0  0  0  0  0  0
   -0.4951   -1.0771   -0.4758 C   0  0  0  0  0  0  0  0  0  0  0  0
   -1.7391   -0.8549   -0.1147 C   0  0  0  0  0  0  0  0  0  0  0  0
   -2.1394    0.4498    0.4313 C   0  0  0  0  0  0  0  0  0  0  0  0
   -1.1447    1.2550    0.8856 O   0  0  0  0  0  0  0  0  0  0  0  0
    0.1005    0.7252    0.9991 C   0  0  0  0  0  0  0  0  0  0  0  0
    3.5703    0.2604   -0.6750 H   0  0  0  0  0  0  0  0  0  0  0  0
    1.9635   -1.2649    0.5958 H   0  0  0  0  0  0  0  0  0  0  0  0
    2.0448   -1.1259   -1.1684 H   0  0  0  0  0  0  0  0  0  0  0  0
   -0.4342    1.5344   -1.1972 H   0  0  0  0  0  0  0  0  0  0  0  0
   -0.1815   -2.0514   -0.8869 H   0  0  0  0  0  0  0  0  0  0  0  0
   -2.4836   -1.6273   -0.2141 H   0  0  0  0  0  0  0  0  0  0  0  0
   -2.6522    1.0002   -0.4144 H   0  0  0  0  0  0  0  0  0  0  0  0
   -2.9697    0.3152    1.1842 H   0  0  0  0  0  0  0  0  0  0  0  0
    0.2360    0.0213    1.8401 H   0  0  0  0  0  0  0  0  0  0  0  0
    0.8262    1.5494    1.1535 H   0  0  0  0  0  0  0  0  0  0  0  0
  1  2  1  0
  2  3  1  0
  3  4  1  0
  3  5  1  0
  5  6  2  0
  6  7  1  0
  7  8  1  0
  8  9  1  0
  9  3  1  0
  1 10  1  0
  2 11  1  0
  2 12  1  0
  4 13  1  0
  5 14  1  0
  6 15  1  0
  7 16  1  0
  7 17  1  0
  9 18  1  0
  9 19  1  0
M  END
