
     RDKit          3D

 23 24  0  0  0  0  0  0  0  0999 V2000
    2.8624    0.2066   -0.0405 O   0  0  0  0  0  0  0  0  0  0  0  0
    1.8716   -0.0349    0.8684 C   0  0  0  0  0  0  0  0  0  0  0  0
    0.5564    0.0008    0.2161 C   0  0  0  0  0  0  0  0  0  0  0  0
    0.3478   -0.9968   -0.8857 C   0  0  0  0  0  0  0  0  0  0  0  0
   -1.1707   -1.2332   -0.9485 C   0  0  0  0  0  0  0  0  0  0  0  0
   -1.6866   -0.2553    0.0866 C   0  0  0  0  0  0  0  0  0  0  0  0
   -1.4319    1.1181   -0.4313 C   0  0  0  0  0  0  0  0  0  0  0  0
    0.0634    1.3683   -0.1785 C   0  0  0  0  0  0  0  0  0  0  0  0
   -0.5923   -0.4119    1.1559 C   0  0  0  0  0  0  0  0  0  0  0  0
    3.4192    1.0068    0.2117 H   0  0  0  0  0  0  0  0  0  0  0  0
    1.9150    0.7345    1.6507 H   0  0  0  0  0  0  0  0  0  0  0  0
    2.0154   -1.0303    1.3391 H   0  0  0  0  0  0  0  0  0  0  0  0
    0.8677   -1.9339   -0.5982 H   0  0  0  0  0  0  0  0  0  0  0  0
    0.7188   -0.5837   -1.8356 H   0  0  0  0  0  0  0  0  0  0  0  0
   -1.4349   -2.2366   -0.6216 H   0  0  0  0  0  0  0  0  0  0  0  0
   -1.5490   -0.9246   -1.9217 H   0  0  0  0  0  0  0  0  0  0  0  0
   -2.6729   -0.4615    0.4558 H   0  0  0  0  0  0  0  0  0  0  0  0
   -1.5623    1.1146   -1.5530 H   0  0  0  0  0  0  0  0  0  0  0  0
   -2.0591    1.9054   -0.0225 H   0  0  0  0  0  0  0  0  0  0  0  0
    0.5784    1.7213   -1.0683 H   0  0  0  0  0  0  0  0  0  0  0  0
    0.1060    2.0345    0.6949 H   0  0  0  0  0  0  0  0  0  0  0  0
   -0.4791   -1.4437    1.4791 H   0  0  0  0  0  0  0  0  0  0  0  0
   -0.6833    0.3355    1.9471 H   0  0  0  0  0  0  0  0  0  0  0  0
  1  2  1  0
  2  3  1  0
  3  4  1  0
  4  5  1  0
  5  6  1  0
  6  7  1  0
  7  8  1  0
  6  9  1  0
  8  3  1  0
  9  3  1  0
  1 10  1  0
  2 11  1  0
  2 12  1  0
  4 13  1  0
  4 14  1  0
  5 15  1  0
  5 16  1  0
  6 17  1  0
  7 18  1  0
  7 19  1  0
  8 20  1  0
  8 21  1  0
  9 22  1  0
  9 23  1  0
M  END
