
     RDKit          3D

 21 23  0  0  0  0  0  0  0  0999 V2000
    3.2262   -0.6279   -0.3585 O   0  0  0  0  0  0  0  0  0  0  0  0
    1.9142   -0.9435   -0.7041 C   0  0  0  0  0  0  0  0  0  0  0  0
    1.0010   -0.0524    0.0934 C   0  0  0  0  0  0  0  0  0  0  0  0
    1.0690    1.4161   -0.0278 C   0  0  0  0  0  0  0  0  0  0  0  0
   -0.0752    0.7347   -0.6810 C   0  0  0  0  0  0  0  0  0  0  0  0
   -1.0952    0.0590    0.1751 C   0  0  0  0  0  0  0  0  0  0  0  0
   -2.3460   -0.4917   -0.3080 C   0  0  0  0  0  0  0  0  0  0  0  0
   -2.2876    0.6814    0.6993 C   0  0  0  0  0  0  0  0  0  0  0  0
   -0.0753   -0.6720    0.9606 C   0  0  0  0  0  0  0  0  0  0  0  0
    3.2470   -0.1633    0.5009 H   0  0  0  0  0  0  0  0  0  0  0  0
    1.7464   -2.0046   -0.5576 H   0  0  0  0  0  0  0  0  0  0  0  0
    1.7927   -0.6442   -1.7837 H   0  0  0  0  0  0  0  0  0  0  0  0
    1.8477    1.7923   -0.7404 H   0  0  0  0  0  0  0  0  0  0  0  0
    0.9545    2.0020    0.9004 H   0  0  0  0  0  0  0  0  0  0  0  0
   -0.0934    0.6204   -1.7702 H   0  0  0  0  0  0  0  0  0  0  0  0
   -2.6909   -1.4488    0.1590 H   0  0  0  0  0  0  0  0  0  0  0  0
   -2.6555   -0.2556   -1.3407 H   0  0  0  0  0  0  0  0  0  0  0  0
   -2.7091    0.5119    1.6968 H   0  0  0  0  0  0  0  0  0  0  0  0
   -2.6313    1.6578    0.2550 H   0  0  0  0  0  0  0  0  0  0  0  0
    0.0240   -0.3954    2.0381 H   0  0  0  0  0  0  0  0  0  0  0  0
   -0.1631   -1.7762    0.7933 H   0  0  0  0  0  0  0  0  0  0  0  0
  1  2  1  0
  2  3  1  0
  3  4  1  0
  4  5  1  0
  5  6  1  0
  6  7  1  0
  7  8  1  0
  6  9  1  0
  5  3  1  0
  8  6  1  0
  9  3  1  0
  1 10  1  0
  2 11  1  0
  2 12  1  0
  4 13  1  0
  4 14  1  0
  5 15  1  0
  7 16  1  0
  7 17  1  0
  8 18  1  0
  8 19  1  0
  9 20  1  0
  9 21  1  0
M  END
