
     RDKit          3D

 18 19  0  0  0  0  0  0  0  0999 V2000
    2.3617    1.0141   -0.1277 O   0  0  0  0  0  0  0  0  0  0  0  0
    1.5816   -0.0849   -0.4520 C   0  0  0  0  0  0  0  0  0  0  0  0
    0.3846   -0.1320    0.4659 C   0  0  0  0  0  0  0  0  0  0  0  0
   -0.4624    1.1344    0.3264 C   0  0  0  0  0  0  0  0  0  0  0  0
   -1.4849    0.6526   -0.6408 C   0  0  0  0  0  0  0  0  0  0  0  0
   -2.6645    0.1095   -0.5181 O   0  0  0  0  0  0  0  0  0  0  0  0
   -1.8583   -0.5902    0.2293 C   0  0  0  0  0  0  0  0  0  0  0  0
   -0.5553   -1.2640   -0.0013 C   0  0  0  0  0  0  0  0  0  0  0  0
    3.1226    0.7653    0.4474 H   0  0  0  0  0  0  0  0  0  0  0  0
    2.1940   -0.9947   -0.2856 H   0  0  0  0  0  0  0  0  0  0  0  0
    1.2962   -0.0610   -1.5135 H   0  0  0  0  0  0  0  0  0  0  0  0
    0.6989   -0.2971    1.4990 H   0  0  0  0  0  0  0  0  0  0  0  0
   -0.9263    1.3356    1.3113 H   0  0  0  0  0  0  0  0  0  0  0  0
    0.1231    1.9831   -0.0504 H   0  0  0  0  0  0  0  0  0  0  0  0
   -0.9982    0.4172   -1.6374 H   0  0  0  0  0  0  0  0  0  0  0  0
   -1.9994   -0.3830    1.3351 H   0  0  0  0  0  0  0  0  0  0  0  0
   -0.4080   -1.4853   -1.0621 H   0  0  0  0  0  0  0  0  0  0  0  0
   -0.4053   -2.1196    0.6745 H   0  0  0  0  0  0  0  0  0  0  0  0
  1  2  1  0
  2  3  1  0
  3  4  1  0
  4  5  1  0
  5  6  1  0
  6  7  1  0
  7  8  1  0
  8  3  1  0
  7  5  1  0
  1  9  1  0
  2 10  1  0
  2 11  1  0
  3 12  1  0
  4 13  1  0
  4 14  1  0
  5 15  1  0
  7 16  1  0
  8 17  1  0
  8 18  1  0
M  END
