
     RDKit          3D

 19 20  0  0  0  0  0  0  0  0999 V2000
    3.0347    0.3724    0.0239 O   0  0  0  0  0  0  0  0  0  0  0  0
    2.0621   -0.1086    0.9254 C   0  0  0  0  0  0  0  0  0  0  0  0
    0.7310   -0.0257    0.2846 C   0  0  0  0  0  0  0  0  0  0  0  0
    0.0443   -1.1453    0.1267 C   0  0  0  0  0  0  0  0  0  0  0  0
   -1.3086   -1.1559   -0.5105 C   0  0  0  0  0  0  0  0  0  0  0  0
   -2.0175    0.0990    0.0115 C   0  0  0  0  0  0  0  0  0  0  0  0
   -1.2137    1.2974   -0.4529 C   0  0  0  0  0  0  0  0  0  0  0  0
   -0.3560    1.1305   -1.5471 O   0  0  0  0  0  0  0  0  0  0  0  0
    0.1495    1.2635   -0.1815 C   0  0  0  0  0  0  0  0  0  0  0  0
    3.3129   -0.3569   -0.5809 H   0  0  0  0  0  0  0  0  0  0  0  0
    2.0993    0.4467    1.8828 H   0  0  0  0  0  0  0  0  0  0  0  0
    2.3134   -1.1749    1.0719 H   0  0  0  0  0  0  0  0  0  0  0  0
    0.4417   -2.1147    0.4582 H   0  0  0  0  0  0  0  0  0  0  0  0
   -1.9267   -2.0066   -0.1661 H   0  0  0  0  0  0  0  0  0  0  0  0
   -1.2376   -1.0893   -1.6111 H   0  0  0  0  0  0  0  0  0  0  0  0
   -3.0508    0.1226   -0.3725 H   0  0  0  0  0  0  0  0  0  0  0  0
   -2.0334    0.0488    1.1253 H   0  0  0  0  0  0  0  0  0  0  0  0
   -1.7954    2.2237   -0.4864 H   0  0  0  0  0  0  0  0  0  0  0  0
    0.7507    2.1734   -0.0014 H   0  0  0  0  0  0  0  0  0  0  0  0
  1  2  1  0
  2  3  1  0
  3  4  2  0
  4  5  1  0
  5  6  1  0
  6  7  1  0
  7  8  1  0
  8  9  1  0
  9  3  1  0
  9  7  1  0
  1 10  1  0
  2 11  1  0
  2 12  1  0
  4 13  1  0
  5 14  1  0
  5 15  1  0
  6 16  1  0
  6 17  1  0
  7 18  1  0
  9 19  1  0
M  END
