
     RDKit          3D

 15 16  0  0  0  0  0  0  0  0999 V2000
    2.0707    0.6799    0.7451 O   0  0  0  0  0  0  0  0  0  0  0  0
    1.3828   -0.5328    0.7790 C   0  0  0  0  0  0  0  0  0  0  0  0
    0.1157   -0.3575    0.0090 C   0  0  0  0  0  0  0  0  0  0  0  0
   -0.1079    0.9229   -0.7204 C   0  0  0  0  0  0  0  0  0  0  0  0
   -0.9662    0.5255    0.4178 C   0  0  0  0  0  0  0  0  0  0  0  0
   -1.9022   -0.6222    0.1801 C   0  0  0  0  0  0  0  0  0  0  0  0
   -0.7778   -1.4068   -0.1289 O   0  0  0  0  0  0  0  0  0  0  0  0
    2.9484    0.6028    0.2884 H   0  0  0  0  0  0  0  0  0  0  0  0
    1.1912   -0.7397    1.8686 H   0  0  0  0  0  0  0  0  0  0  0  0
    2.0051   -1.3572    0.4236 H   0  0  0  0  0  0  0  0  0  0  0  0
   -0.5972    0.9111   -1.7125 H   0  0  0  0  0  0  0  0  0  0  0  0
    0.6086    1.7226   -0.5364 H   0  0  0  0  0  0  0  0  0  0  0  0
   -0.9622    1.0595    1.3841 H   0  0  0  0  0  0  0  0  0  0  0  0
   -2.5599   -0.4350   -0.7078 H   0  0  0  0  0  0  0  0  0  0  0  0
   -2.4491   -0.9730    1.0859 H   0  0  0  0  0  0  0  0  0  0  0  0
  1  2  1  0
  2  3  1  0
  3  4  1  0
  4  5  1  0
  5  6  1  0
  6  7  1  0
  5  3  1  0
  7  3  1  0
  1  8  1  0
  2  9  1  0
  2 10  1  0
  4 11  1  0
  4 12  1  0
  5 13  1  0
  6 14  1  0
  6 15  1  0
M  END
