
     RDKit          3D

 19 20  0  0  0  0  0  0  0  0999 V2000
    2.3314   -0.8440   -0.1889 O   0  0  0  0  0  0  0  0  0  0  0  0
    1.7460    0.1357    0.5993 C   0  0  0  0  0  0  0  0  0  0  0  0
    0.3095    0.3648    0.4190 C   0  0  0  0  0  0  0  0  0  0  0  0
   -0.1292    1.3908    1.2905 O   0  0  0  0  0  0  0  0  0  0  0  0
   -0.6765   -0.7484    0.5180 C   0  0  0  0  0  0  0  0  0  0  0  0
   -1.9643    0.0304    0.3328 C   0  0  0  0  0  0  0  0  0  0  0  0
   -1.5443    0.9000   -0.7065 O   0  0  0  0  0  0  0  0  0  0  0  0
   -0.2425    0.4894   -0.9773 C   0  0  0  0  0  0  0  0  0  0  0  0
   -0.4019   -1.0125   -0.9681 C   0  0  0  0  0  0  0  0  0  0  0  0
    2.6066   -0.4959   -1.0719 H   0  0  0  0  0  0  0  0  0  0  0  0
    1.9930   -0.0082    1.6688 H   0  0  0  0  0  0  0  0  0  0  0  0
    2.2773    1.0939    0.3176 H   0  0  0  0  0  0  0  0  0  0  0  0
   -0.1195    2.2661    0.8274 H   0  0  0  0  0  0  0  0  0  0  0  0
   -0.6032   -1.5306    1.2038 H   0  0  0  0  0  0  0  0  0  0  0  0
   -2.2313    0.6349    1.2010 H   0  0  0  0  0  0  0  0  0  0  0  0
   -2.7500   -0.6203   -0.0569 H   0  0  0  0  0  0  0  0  0  0  0  0
    0.3167    0.9590   -1.7349 H   0  0  0  0  0  0  0  0  0  0  0  0
   -1.3529   -1.3651   -1.4607 H   0  0  0  0  0  0  0  0  0  0  0  0
    0.4352   -1.6399   -1.2131 H   0  0  0  0  0  0  0  0  0  0  0  0
  1  2  1  0
  2  3  1  0
  3  4  1  0
  3  5  1  0
  5  6  1  0
  6  7  1  0
  7  8  1  0
  8  9  1  0
  8  3  1  0
  9  5  1  0
  1 10  1  0
  2 11  1  0
  2 12  1  0
  4 13  1  0
  5 14  1  0
  6 15  1  0
  6 16  1  0
  8 17  1  0
  9 18  1  0
  9 19  1  0
M  END
