
     RDKit          3D

 14 14  0  0  0  0  0  0  0  0999 V2000
    2.2064   -0.2963   -0.5783 O   0  0  0  0  0  0  0  0  0  0  0  0
    1.1354   -0.6331    0.2572 C   0  0  0  0  0  0  0  0  0  0  0  0
    0.0758    0.4083    0.0697 C   0  0  0  0  0  0  0  0  0  0  0  0
   -1.1752    0.2368    0.8820 C   0  0  0  0  0  0  0  0  0  0  0  0
   -1.8870    0.7648   -0.2206 O   0  0  0  0  0  0  0  0  0  0  0  0
   -0.9370    0.1042   -1.0290 C   0  0  0  0  0  0  0  0  0  0  0  0
    2.4970    0.6222   -0.3404 H   0  0  0  0  0  0  0  0  0  0  0  0
    0.7604   -1.6146   -0.1118 H   0  0  0  0  0  0  0  0  0  0  0  0
    1.5189   -0.7125    1.2767 H   0  0  0  0  0  0  0  0  0  0  0  0
    0.4304    1.4332    0.0412 H   0  0  0  0  0  0  0  0  0  0  0  0
   -1.2669    0.8984    1.7578 H   0  0  0  0  0  0  0  0  0  0  0  0
   -1.4804   -0.8221    1.0359 H   0  0  0  0  0  0  0  0  0  0  0  0
   -1.1406   -0.9801   -1.0467 H   0  0  0  0  0  0  0  0  0  0  0  0
   -0.7372    0.5908   -1.9938 H   0  0  0  0  0  0  0  0  0  0  0  0
  1  2  1  0
  2  3  1  0
  3  4  1  0
  4  5  1  0
  5  6  1  0
  6  3  1  0
  1  7  1  0
  2  8  1  0
  2  9  1  0
  3 10  1  0
  4 11  1  0
  4 12  1  0
  6 13  1  0
  6 14  1  0
M  END
