
     RDKit          3D

 17 19  0  0  0  0  0  0  0  0999 V2000
    2.3352    0.7279    0.6536 O   0  0  0  0  0  0  0  0  0  0  0  0
    1.6202   -0.3544    0.1174 C   0  0  0  0  0  0  0  0  0  0  0  0
    0.1560   -0.0255    0.2208 C   0  0  0  0  0  0  0  0  0  0  0  0
   -0.4311    1.1479   -0.4341 C   0  0  0  0  0  0  0  0  0  0  0  0
   -1.4832    1.7644    0.2795 O   0  0  0  0  0  0  0  0  0  0  0  0
   -0.7129   -0.1879   -0.9773 C   0  0  0  0  0  0  0  0  0  0  0  0
   -1.5779   -1.1287   -0.1417 C   0  0  0  0  0  0  0  0  0  0  0  0
   -0.9907   -2.2451    0.4239 O   0  0  0  0  0  0  0  0  0  0  0  0
   -0.7681   -0.9863    0.9572 C   0  0  0  0  0  0  0  0  0  0  0  0
    3.0569    1.0344    0.0433 H   0  0  0  0  0  0  0  0  0  0  0  0
    1.8749   -1.2275    0.7381 H   0  0  0  0  0  0  0  0  0  0  0  0
    1.9510   -0.5380   -0.9195 H   0  0  0  0  0  0  0  0  0  0  0  0
    0.2293    1.7941   -1.0265 H   0  0  0  0  0  0  0  0  0  0  0  0
   -1.3412    2.7366    0.2988 H   0  0  0  0  0  0  0  0  0  0  0  0
   -0.3225   -0.5502   -1.9368 H   0  0  0  0  0  0  0  0  0  0  0  0
   -2.6479   -1.1822   -0.3097 H   0  0  0  0  0  0  0  0  0  0  0  0
   -0.9480   -0.7794    2.0132 H   0  0  0  0  0  0  0  0  0  0  0  0
  1  2  1  0
  2  3  1  0
  3  4  1  0
  4  5  1  0
  4  6  1  0
  6  7  1  0
  7  8  1  0
  8  9  1  0
  6  3  1  0
  9  7  1  0
  9  3  1  0
  1 10  1  0
  2 11  1  0
  2 12  1  0
  4 13  1  0
  5 14  1  0
  6 15  1  0
  7 16  1  0
  9 17  1  0
M  END
