
     RDKit          3D

 19 21  0  0  0  0  0  0  0  0999 V2000
    2.8846    0.4315    0.9032 O   0  0  0  0  0  0  0  0  0  0  0  0
    2.0759   -0.2791    0.0177 C   0  0  0  0  0  0  0  0  0  0  0  0
    0.6723    0.2545    0.1444 C   0  0  0  0  0  0  0  0  0  0  0  0
   -0.3390   -0.4189   -0.7606 C   0  0  0  0  0  0  0  0  0  0  0  0
   -1.3843    0.4258   -1.1035 O   0  0  0  0  0  0  0  0  0  0  0  0
   -1.9556    0.9061    0.0444 C   0  0  0  0  0  0  0  0  0  0  0  0
   -1.6037   -0.0770    1.1675 C   0  0  0  0  0  0  0  0  0  0  0  0
   -0.1094   -0.2492    1.3178 C   0  0  0  0  0  0  0  0  0  0  0  0
   -0.8781   -1.1223    0.4494 C   0  0  0  0  0  0  0  0  0  0  0  0
    2.9670    1.3648    0.5642 H   0  0  0  0  0  0  0  0  0  0  0  0
    2.0599   -1.3529    0.2749 H   0  0  0  0  0  0  0  0  0  0  0  0
    2.4927   -0.1631   -0.9859 H   0  0  0  0  0  0  0  0  0  0  0  0
    0.6029    1.3593    0.0761 H   0  0  0  0  0  0  0  0  0  0  0  0
    0.0417   -1.0166   -1.5751 H   0  0  0  0  0  0  0  0  0  0  0  0
   -3.0666    0.9415    0.0130 H   0  0  0  0  0  0  0  0  0  0  0  0
   -1.5069    1.9088    0.2597 H   0  0  0  0  0  0  0  0  0  0  0  0
   -2.2831   -0.2204    1.9982 H   0  0  0  0  0  0  0  0  0  0  0  0
    0.3434   -0.5128    2.2608 H   0  0  0  0  0  0  0  0  0  0  0  0
   -1.0138   -2.1800    0.5186 H   0  0  0  0  0  0  0  0  0  0  0  0
  1  2  1  0
  2  3  1  0
  3  4  1  0
  4  5  1  0
  5  6  1  0
  6  7  1  0
  7  8  1  0
  8  9  1  0
  8  3  1  0
  9  4  1  0
  9  7  1  0
  1 10  1  0
  2 11  1  0
  2 12  1  0
  3 13  1  0
  4 14  1  0
  6 15  1  0
  6 16  1  0
  7 17  1  0
  8 18  1  0
  9 19  1  0
M  END
