
     RDKit          3D

 17 19  0  0  0  0  0  0  0  0999 V2000
   -1.8240   -1.3651    1.0430 O   0  0  0  0  0  0  0  0  0  0  0  0
   -1.9774   -0.1316    0.3777 C   0  0  0  0  0  0  0  0  0  0  0  0
   -0.6240    0.4284   -0.0421 C   0  0  0  0  0  0  0  0  0  0  0  0
   -0.7158    1.6392   -0.7000 O   0  0  0  0  0  0  0  0  0  0  0  0
    0.5444    0.2702    0.8528 C   0  0  0  0  0  0  0  0  0  0  0  0
    1.8634    0.7170    0.2544 C   0  0  0  0  0  0  0  0  0  0  0  0
    2.8067   -0.2629    0.1484 O   0  0  0  0  0  0  0  0  0  0  0  0
    1.7843   -0.2330   -0.7671 C   0  0  0  0  0  0  0  0  0  0  0  0
    0.3815   -0.5944   -0.4025 C   0  0  0  0  0  0  0  0  0  0  0  0
   -1.7983   -2.1007    0.3698 H   0  0  0  0  0  0  0  0  0  0  0  0
   -2.5499    0.5743    1.0012 H   0  0  0  0  0  0  0  0  0  0  0  0
   -2.5663   -0.3723   -0.5377 H   0  0  0  0  0  0  0  0  0  0  0  0
   -0.1526    1.7317   -1.4853 H   0  0  0  0  0  0  0  0  0  0  0  0
    0.5064   -0.2217    1.8193 H   0  0  0  0  0  0  0  0  0  0  0  0
    2.0680    1.7724    0.0787 H   0  0  0  0  0  0  0  0  0  0  0  0
    2.0762   -0.2086   -1.8124 H   0  0  0  0  0  0  0  0  0  0  0  0
    0.1776   -1.6428   -0.1981 H   0  0  0  0  0  0  0  0  0  0  0  0
  1  2  1  0
  2  3  1  0
  3  4  1  0
  3  5  1  0
  5  6  1  0
  6  7  1  0
  7  8  1  0
  8  9  1  0
  9  3  1  0
  9  5  1  0
  8  6  1  0
  1 10  1  0
  2 11  1  0
  2 12  1  0
  4 13  1  0
  5 14  1  0
  6 15  1  0
  8 16  1  0
  9 17  1  0
M  END
