
     RDKit          3D

 19 21  0  0  0  0  0  0  0  0999 V2000
    2.4562   -1.1081    0.6989 O   0  0  0  0  0  0  0  0  0  0  0  0
    1.7148   -0.5756   -0.3393 C   0  0  0  0  0  0  0  0  0  0  0  0
    0.3633   -0.1437    0.0644 C   0  0  0  0  0  0  0  0  0  0  0  0
   -0.5578   -1.1476    0.6243 C   0  0  0  0  0  0  0  0  0  0  0  0
   -1.8006   -0.8105    0.3148 C   0  0  0  0  0  0  0  0  0  0  0  0
   -1.8168    0.4460   -0.4783 C   0  0  0  0  0  0  0  0  0  0  0  0
   -0.8954    1.5264   -0.1052 C   0  0  0  0  0  0  0  0  0  0  0  0
    0.2348    1.1518    0.8311 C   0  0  0  0  0  0  0  0  0  0  0  0
   -0.4498    0.4838   -1.0167 C   0  0  0  0  0  0  0  0  0  0  0  0
    2.6960   -2.0488    0.4976 H   0  0  0  0  0  0  0  0  0  0  0  0
    2.2517    0.2999   -0.7613 H   0  0  0  0  0  0  0  0  0  0  0  0
    1.6124   -1.2939   -1.1949 H   0  0  0  0  0  0  0  0  0  0  0  0
   -0.2313   -2.0282    1.2044 H   0  0  0  0  0  0  0  0  0  0  0  0
   -2.6684   -1.3705    0.5999 H   0  0  0  0  0  0  0  0  0  0  0  0
   -2.6521    0.6515   -1.1653 H   0  0  0  0  0  0  0  0  0  0  0  0
   -1.0307    2.5623   -0.4123 H   0  0  0  0  0  0  0  0  0  0  0  0
   -0.1732    1.0312    1.8562 H   0  0  0  0  0  0  0  0  0  0  0  0
    1.1050    1.8018    0.8192 H   0  0  0  0  0  0  0  0  0  0  0  0
   -0.1582    0.5721   -2.0375 H   0  0  0  0  0  0  0  0  0  0  0  0
  1  2  1  0
  2  3  1  0
  3  4  1  0
  4  5  2  0
  5  6  1  0
  6  7  1  0
  7  8  1  0
  7  9  1  0
  8  3  1  0
  9  3  1  0
  9  6  1  0
  1 10  1  0
  2 11  1  0
  2 12  1  0
  4 13  1  0
  5 14  1  0
  6 15  1  0
  7 16  1  0
  8 17  1  0
  8 18  1  0
  9 19  1  0
M  END
