
     RDKit          3D

 19 20  0  0  0  0  0  0  0  0999 V2000
    2.8310    0.2731   -0.7903 O   0  0  0  0  0  0  0  0  0  0  0  0
    2.0251    0.5145    0.2961 C   0  0  0  0  0  0  0  0  0  0  0  0
    0.8675   -0.4985    0.3649 C   0  0  0  0  0  0  0  0  0  0  0  0
    1.4000   -1.8090    0.4738 O   0  0  0  0  0  0  0  0  0  0  0  0
   -0.2902   -0.2324    1.1344 C   0  0  0  0  0  0  0  0  0  0  0  0
   -1.7556   -0.5213    0.7698 C   0  0  0  0  0  0  0  0  0  0  0  0
   -1.4549    0.6846   -0.1523 C   0  0  0  0  0  0  0  0  0  0  0  0
   -2.2959    0.7961   -1.2264 O   0  0  0  0  0  0  0  0  0  0  0  0
   -0.2552   -0.2264   -0.4547 C   0  0  0  0  0  0  0  0  0  0  0  0
    3.6837    0.7308   -0.6805 H   0  0  0  0  0  0  0  0  0  0  0  0
    1.6072    1.5461    0.1811 H   0  0  0  0  0  0  0  0  0  0  0  0
    2.5574    0.5006    1.2699 H   0  0  0  0  0  0  0  0  0  0  0  0
    0.8297   -2.4209   -0.0823 H   0  0  0  0  0  0  0  0  0  0  0  0
   -0.2987    0.8106    1.5900 H   0  0  0  0  0  0  0  0  0  0  0  0
   -1.9222   -1.4319    0.1991 H   0  0  0  0  0  0  0  0  0  0  0  0
   -2.4401   -0.2946    1.5895 H   0  0  0  0  0  0  0  0  0  0  0  0
   -1.2045    1.5935    0.4078 H   0  0  0  0  0  0  0  0  0  0  0  0
   -3.1771    1.1464   -0.9977 H   0  0  0  0  0  0  0  0  0  0  0  0
   -0.7075   -1.1614   -0.9197 H   0  0  0  0  0  0  0  0  0  0  0  0
  1  2  1  0
  2  3  1  0
  3  4  1  0
  3  5  1  0
  5  6  1  0
  6  7  1  0
  7  8  1  0
  7  9  1  0
  9  3  1  0
  9  5  1  0
  1 10  1  0
  2 11  1  0
  2 12  1  0
  4 13  1  0
  5 14  1  0
  6 15  1  0
  6 16  1  0
  7 17  1  0
  8 18  1  0
  9 19  1  0
M  END
