
     RDKit          3D

 21 22  0  0  0  0  0  0  0  0999 V2000
    1.7660    0.7826   -1.3588 O   0  0  0  0  0  0  0  0  0  0  0  0
    1.6619    1.0375    0.0084 C   0  0  0  0  0  0  0  0  0  0  0  0
    0.4978    0.2504    0.5639 C   0  0  0  0  0  0  0  0  0  0  0  0
    0.7349   -1.2198    0.3336 C   0  0  0  0  0  0  0  0  0  0  0  0
   -0.5507   -1.8133   -0.1633 C   0  0  0  0  0  0  0  0  0  0  0  0
   -1.5685   -0.7541    0.1472 C   0  0  0  0  0  0  0  0  0  0  0  0
   -0.7805    0.5117   -0.1593 C   0  0  0  0  0  0  0  0  0  0  0  0
   -1.4442    1.7167   -0.3735 C   0  0  0  0  0  0  0  0  0  0  0  0
   -0.8036    1.0428   -1.4249 O   0  0  0  0  0  0  0  0  0  0  0  0
    2.5680    0.2407   -1.5798 H   0  0  0  0  0  0  0  0  0  0  0  0
    1.5419    2.1282    0.1712 H   0  0  0  0  0  0  0  0  0  0  0  0
    2.5911    0.6741    0.4916 H   0  0  0  0  0  0  0  0  0  0  0  0
    0.3408    0.4038    1.6306 H   0  0  0  0  0  0  0  0  0  0  0  0
    1.0978   -1.7385    1.2695 H   0  0  0  0  0  0  0  0  0  0  0  0
    1.5050   -1.4074   -0.4549 H   0  0  0  0  0  0  0  0  0  0  0  0
   -0.5398   -1.9969   -1.2695 H   0  0  0  0  0  0  0  0  0  0  0  0
   -0.7487   -2.7370    0.3821 H   0  0  0  0  0  0  0  0  0  0  0  0
   -2.4965   -0.8315   -0.4252 H   0  0  0  0  0  0  0  0  0  0  0  0
   -1.7442   -0.7380    1.2560 H   0  0  0  0  0  0  0  0  0  0  0  0
   -2.5758    1.7247   -0.3827 H   0  0  0  0  0  0  0  0  0  0  0  0
   -1.0526    2.7233   -0.1137 H   0  0  0  0  0  0  0  0  0  0  0  0
  1  2  1  0
  2  3  1  0
  3  4  1  0
  4  5  1  0
  5  6  1  0
  6  7  1  0
  7  8  1  0
  8  9  1  0
  7  3  1  0
  9  7  1  0
  1 10  1  0
  2 11  1  0
  2 12  1  0
  3 13  1  0
  4 14  1  0
  4 15  1  0
  5 16  1  0
  5 17  1  0
  6 18  1  0
  6 19  1  0
  8 20  1  0
  8 21  1  0
M  END
