
     RDKit          3D

 19 21  0  0  0  0  0  0  0  0999 V2000
    2.1700   -1.1355   -1.3557 O   0  0  0  0  0  0  0  0  0  0  0  0
    1.9193   -0.0192   -0.5841 C   0  0  0  0  0  0  0  0  0  0  0  0
    0.7106   -0.0857    0.2520 C   0  0  0  0  0  0  0  0  0  0  0  0
    0.7119   -1.1643    1.2072 O   0  0  0  0  0  0  0  0  0  0  0  0
   -0.2622   -1.2534    0.1487 C   0  0  0  0  0  0  0  0  0  0  0  0
   -1.5471   -0.5105    0.3314 C   0  0  0  0  0  0  0  0  0  0  0  0
   -1.3335    0.7142   -0.5660 C   0  0  0  0  0  0  0  0  0  0  0  0
   -0.2342    1.0353    0.4574 C   0  0  0  0  0  0  0  0  0  0  0  0
   -1.2165    0.4344    1.4727 C   0  0  0  0  0  0  0  0  0  0  0  0
    2.7537   -0.8574   -2.1067 H   0  0  0  0  0  0  0  0  0  0  0  0
    2.8115    0.0917    0.1010 H   0  0  0  0  0  0  0  0  0  0  0  0
    1.9559    0.8762   -1.2360 H   0  0  0  0  0  0  0  0  0  0  0  0
   -0.1201   -2.0351   -0.5762 H   0  0  0  0  0  0  0  0  0  0  0  0
   -2.4817   -0.9949    0.3067 H   0  0  0  0  0  0  0  0  0  0  0  0
   -0.9486    0.4165   -1.5505 H   0  0  0  0  0  0  0  0  0  0  0  0
   -2.1618    1.4393   -0.5486 H   0  0  0  0  0  0  0  0  0  0  0  0
    0.0636    2.0355    0.5768 H   0  0  0  0  0  0  0  0  0  0  0  0
   -2.0340    1.1301    1.7269 H   0  0  0  0  0  0  0  0  0  0  0  0
   -0.7570   -0.1171    2.2896 H   0  0  0  0  0  0  0  0  0  0  0  0
  1  2  1  0
  2  3  1  0
  3  4  1  0
  4  5  1  0
  5  6  1  0
  6  7  1  0
  7  8  1  0
  8  9  1  0
  5  3  1  0
  9  6  1  0
  8  3  1  0
  1 10  1  0
  2 11  1  0
  2 12  1  0
  5 13  1  0
  6 14  1  0
  7 15  1  0
  7 16  1  0
  8 17  1  0
  9 18  1  0
  9 19  1  0
M  END
