
     RDKit          3D

 21 22  0  0  0  0  0  0  0  0999 V2000
    2.8039    1.1981    1.1573 O   0  0  0  0  0  0  0  0  0  0  0  0
    2.5312   -0.0515    0.6182 C   0  0  0  0  0  0  0  0  0  0  0  0
    1.0995   -0.1753    0.2167 C   0  0  0  0  0  0  0  0  0  0  0  0
    0.1707    0.7543    0.3375 C   0  0  0  0  0  0  0  0  0  0  0  0
   -1.1100    0.2510   -0.1698 C   0  0  0  0  0  0  0  0  0  0  0  0
   -0.7243   -0.9110   -1.0731 C   0  0  0  0  0  0  0  0  0  0  0  0
    0.5185   -1.4137   -0.3946 C   0  0  0  0  0  0  0  0  0  0  0  0
   -2.3107    0.1917    0.6693 C   0  0  0  0  0  0  0  0  0  0  0  0
   -2.2242    1.1274   -0.5577 C   0  0  0  0  0  0  0  0  0  0  0  0
    3.6988    1.4671    0.8634 H   0  0  0  0  0  0  0  0  0  0  0  0
    3.1814   -0.2278   -0.2584 H   0  0  0  0  0  0  0  0  0  0  0  0
    2.8078   -0.8388    1.3646 H   0  0  0  0  0  0  0  0  0  0  0  0
    0.3362    1.7372    0.7494 H   0  0  0  0  0  0  0  0  0  0  0  0
   -0.4679   -0.5336   -2.0838 H   0  0  0  0  0  0  0  0  0  0  0  0
   -1.5017   -1.6732   -1.0836 H   0  0  0  0  0  0  0  0  0  0  0  0
    0.2644   -2.1731    0.3614 H   0  0  0  0  0  0  0  0  0  0  0  0
    1.2428   -1.7639   -1.1457 H   0  0  0  0  0  0  0  0  0  0  0  0
   -2.9847   -0.6890    0.5795 H   0  0  0  0  0  0  0  0  0  0  0  0
   -2.2618    0.7211    1.6491 H   0  0  0  0  0  0  0  0  0  0  0  0
   -2.8278    0.7948   -1.4238 H   0  0  0  0  0  0  0  0  0  0  0  0
   -2.2421    2.2081   -0.3760 H   0  0  0  0  0  0  0  0  0  0  0  0
  1  2  1  0
  2  3  1  0
  3  4  2  0
  4  5  1  0
  5  6  1  0
  6  7  1  0
  5  8  1  0
  8  9  1  0
  7  3  1  0
  9  5  1  0
  1 10  1  0
  2 11  1  0
  2 12  1  0
  4 13  1  0
  6 14  1  0
  6 15  1  0
  7 16  1  0
  7 17  1  0
  8 18  1  0
  8 19  1  0
  9 20  1  0
  9 21  1  0
M  END
