
     RDKit          3D

 17 19  0  0  0  0  0  0  0  0999 V2000
    2.6392   -0.2036   -0.9370 O   0  0  0  0  0  0  0  0  0  0  0  0
    2.0439    0.4712    0.1152 C   0  0  0  0  0  0  0  0  0  0  0  0
    0.5718    0.3491    0.0403 C   0  0  0  0  0  0  0  0  0  0  0  0
   -0.2879    1.3570   -0.0704 C   0  0  0  0  0  0  0  0  0  0  0  0
   -1.6808    0.7977   -0.1129 C   0  0  0  0  0  0  0  0  0  0  0  0
   -2.0276    0.2406    1.1431 O   0  0  0  0  0  0  0  0  0  0  0  0
   -1.4311   -0.9659    0.8379 C   0  0  0  0  0  0  0  0  0  0  0  0
   -0.1680   -0.9469    0.0716 C   0  0  0  0  0  0  0  0  0  0  0  0
   -1.4354   -0.5813   -0.5812 C   0  0  0  0  0  0  0  0  0  0  0  0
    2.9736   -1.0697   -0.5666 H   0  0  0  0  0  0  0  0  0  0  0  0
    2.3592    1.5332    0.1357 H   0  0  0  0  0  0  0  0  0  0  0  0
    2.3614    0.0550    1.1151 H   0  0  0  0  0  0  0  0  0  0  0  0
    0.0060    2.4105   -0.1199 H   0  0  0  0  0  0  0  0  0  0  0  0
   -2.4322    1.4088   -0.5808 H   0  0  0  0  0  0  0  0  0  0  0  0
   -1.8945   -1.9139    1.1765 H   0  0  0  0  0  0  0  0  0  0  0  0
    0.3228   -1.8591   -0.2836 H   0  0  0  0  0  0  0  0  0  0  0  0
   -1.9204   -1.0829   -1.3830 H   0  0  0  0  0  0  0  0  0  0  0  0
  1  2  1  0
  2  3  1  0
  3  4  2  0
  4  5  1  0
  5  6  1  0
  6  7  1  0
  7  8  1  0
  8  9  1  0
  8  3  1  0
  9  5  1  0
  9  7  1  0
  1 10  1  0
  2 11  1  0
  2 12  1  0
  4 13  1  0
  5 14  1  0
  7 15  1  0
  8 16  1  0
  9 17  1  0
M  END
