
     RDKit          3D

 19 19  0  0  0  0  0  0  0  0999 V2000
    1.2487   -2.1660    0.1500 O   0  0  0  0  0  0  0  0  0  0  0  0
    1.7582   -1.0001   -0.4406 C   0  0  0  0  0  0  0  0  0  0  0  0
    0.7819    0.1367   -0.3077 C   0  0  0  0  0  0  0  0  0  0  0  0
    0.9863    1.2911    0.3038 C   0  0  0  0  0  0  0  0  0  0  0  0
   -0.2573    2.0777    0.1707 C   0  0  0  0  0  0  0  0  0  0  0  0
   -0.8433    1.5474   -0.9593 O   0  0  0  0  0  0  0  0  0  0  0  0
   -0.6072    0.1911   -0.8471 C   0  0  0  0  0  0  0  0  0  0  0  0
   -1.6009   -0.3868    0.1281 C   0  0  0  0  0  0  0  0  0  0  0  0
   -1.4047   -1.7782    0.2665 O   0  0  0  0  0  0  0  0  0  0  0  0
    1.3260   -2.0243    1.1270 H   0  0  0  0  0  0  0  0  0  0  0  0
    2.6709   -0.7342    0.1222 H   0  0  0  0  0  0  0  0  0  0  0  0
    1.9598   -1.1960   -1.5116 H   0  0  0  0  0  0  0  0  0  0  0  0
    1.8806    1.6232    0.8120 H   0  0  0  0  0  0  0  0  0  0  0  0
   -0.8530    1.9260    1.1094 H   0  0  0  0  0  0  0  0  0  0  0  0
   -0.0515    3.1721    0.0541 H   0  0  0  0  0  0  0  0  0  0  0  0
   -0.6671   -0.3271   -1.8394 H   0  0  0  0  0  0  0  0  0  0  0  0
   -2.6431   -0.2666   -0.1965 H   0  0  0  0  0  0  0  0  0  0  0  0
   -1.4564    0.0204    1.1353 H   0  0  0  0  0  0  0  0  0  0  0  0
   -2.2279   -2.1063    0.7231 H   0  0  0  0  0  0  0  0  0  0  0  0
  1  2  1  0
  2  3  1  0
  3  4  2  0
  4  5  1  0
  5  6  1  0
  6  7  1  0
  7  8  1  0
  8  9  1  0
  7  3  1  0
  1 10  1  0
  2 11  1  0
  2 12  1  0
  4 13  1  0
  5 14  1  0
  5 15  1  0
  7 16  1  0
  8 17  1  0
  8 18  1  0
  9 19  1  0
M  END
