
     RDKit          3D

 23 24  0  0  0  0  0  0  0  0999 V2000
    3.8410   -0.1511    0.3121 O   0  0  0  0  0  0  0  0  0  0  0  0
    2.6444   -0.7979    0.6914 C   0  0  0  0  0  0  0  0  0  0  0  0
    1.5180    0.1943    0.4362 C   0  0  0  0  0  0  0  0  0  0  0  0
    1.4123    0.6237   -1.0108 C   0  0  0  0  0  0  0  0  0  0  0  0
    0.3570   -0.2659   -0.3223 C   0  0  0  0  0  0  0  0  0  0  0  0
   -0.9881    0.3996   -0.2309 C   0  0  0  0  0  0  0  0  0  0  0  0
   -2.0579   -0.2314   -1.0974 C   0  0  0  0  0  0  0  0  0  0  0  0
   -3.0347    0.0570    0.0200 C   0  0  0  0  0  0  0  0  0  0  0  0
   -1.8266    0.0020    0.9660 C   0  0  0  0  0  0  0  0  0  0  0  0
    3.7139    0.8333    0.3084 H   0  0  0  0  0  0  0  0  0  0  0  0
    2.5181   -1.6261   -0.0313 H   0  0  0  0  0  0  0  0  0  0  0  0
    2.6781   -1.1343    1.7425 H   0  0  0  0  0  0  0  0  0  0  0  0
    1.4449    0.9590    1.2339 H   0  0  0  0  0  0  0  0  0  0  0  0
    2.0487    0.1041   -1.7705 H   0  0  0  0  0  0  0  0  0  0  0  0
    1.1896    1.6881   -1.1392 H   0  0  0  0  0  0  0  0  0  0  0  0
    0.3104   -1.3209   -0.6766 H   0  0  0  0  0  0  0  0  0  0  0  0
   -0.9821    1.5118   -0.3553 H   0  0  0  0  0  0  0  0  0  0  0  0
   -2.1867    0.3356   -2.0193 H   0  0  0  0  0  0  0  0  0  0  0  0
   -1.8982   -1.3260   -1.1904 H   0  0  0  0  0  0  0  0  0  0  0  0
   -3.7782   -0.7400    0.2160 H   0  0  0  0  0  0  0  0  0  0  0  0
   -3.4364    1.0913   -0.0004 H   0  0  0  0  0  0  0  0  0  0  0  0
   -1.6288   -0.9856    1.3824 H   0  0  0  0  0  0  0  0  0  0  0  0
   -1.8590    0.7798    1.7590 H   0  0  0  0  0  0  0  0  0  0  0  0
  1  2  1  0
  2  3  1  0
  3  4  1  0
  4  5  1  0
  5  6  1  0
  6  7  1  0
  7  8  1  0
  8  9  1  0
  5  3  1  0
  9  6  1  0
  1 10  1  0
  2 11  1  0
  2 12  1  0
  3 13  1  0
  4 14  1  0
  4 15  1  0
  5 16  1  0
  6 17  1  0
  7 18  1  0
  7 19  1  0
  8 20  1  0
  8 21  1  0
  9 22  1  0
  9 23  1  0
M  END
