
     RDKit          3D

 19 20  0  0  0  0  0  0  0  0999 V2000
    2.5909   -0.2263   -0.0592 O   0  0  0  0  0  0  0  0  0  0  0  0
    1.3157   -0.7926    0.1403 C   0  0  0  0  0  0  0  0  0  0  0  0
    0.4134    0.3719    0.4750 C   0  0  0  0  0  0  0  0  0  0  0  0
    0.7625    1.0910    1.6012 O   0  0  0  0  0  0  0  0  0  0  0  0
    0.3805    1.3239   -0.7282 C   0  0  0  0  0  0  0  0  0  0  0  0
   -1.0118    1.4299   -0.6334 O   0  0  0  0  0  0  0  0  0  0  0  0
   -1.0029    0.2695    0.1119 C   0  0  0  0  0  0  0  0  0  0  0  0
   -2.0905   -0.1707    0.9617 C   0  0  0  0  0  0  0  0  0  0  0  0
   -1.6840   -0.9623   -0.3057 C   0  0  0  0  0  0  0  0  0  0  0  0
    3.2783   -0.8822   -0.2395 H   0  0  0  0  0  0  0  0  0  0  0  0
    0.9827   -1.2305   -0.8004 H   0  0  0  0  0  0  0  0  0  0  0  0
    1.3881   -1.4944    0.9858 H   0  0  0  0  0  0  0  0  0  0  0  0
    1.6829    1.4317    1.4523 H   0  0  0  0  0  0  0  0  0  0  0  0
    0.6538    0.8260   -1.6808 H   0  0  0  0  0  0  0  0  0  0  0  0
    0.9032    2.2762   -0.5573 H   0  0  0  0  0  0  0  0  0  0  0  0
   -1.8917   -0.6991    1.9278 H   0  0  0  0  0  0  0  0  0  0  0  0
   -3.0880    0.3071    0.8754 H   0  0  0  0  0  0  0  0  0  0  0  0
   -1.2154   -1.9632   -0.1294 H   0  0  0  0  0  0  0  0  0  0  0  0
   -2.3678   -0.9057   -1.1734 H   0  0  0  0  0  0  0  0  0  0  0  0
  1  2  1  0
  2  3  1  0
  3  4  1  0
  3  5  1  0
  5  6  1  0
  6  7  1  0
  7  8  1  0
  8  9  1  0
  7  3  1  0
  9  7  1  0
  1 10  1  0
  2 11  1  0
  2 12  1  0
  4 13  1  0
  5 14  1  0
  5 15  1  0
  8 16  1  0
  8 17  1  0
  9 18  1  0
  9 19  1  0
M  END
