
     RDKit          3D

 17 18  0  0  0  0  0  0  0  0999 V2000
    2.8028    0.4309    0.0345 O   0  0  0  0  0  0  0  0  0  0  0  0
    2.0264   -0.7082   -0.1691 C   0  0  0  0  0  0  0  0  0  0  0  0
    0.5571   -0.3298   -0.0885 C   0  0  0  0  0  0  0  0  0  0  0  0
   -0.3347   -0.8022    0.7633 C   0  0  0  0  0  0  0  0  0  0  0  0
   -1.6671   -0.2066    0.5479 C   0  0  0  0  0  0  0  0  0  0  0  0
   -1.9469    0.5771    1.6734 O   0  0  0  0  0  0  0  0  0  0  0  0
   -1.4443    0.6929   -0.6352 C   0  0  0  0  0  0  0  0  0  0  0  0
   -1.1007   -0.1092   -1.8346 O   0  0  0  0  0  0  0  0  0  0  0  0
   -0.1248    0.6472   -0.9686 C   0  0  0  0  0  0  0  0  0  0  0  0
    2.2141    1.2344    0.0530 H   0  0  0  0  0  0  0  0  0  0  0  0
    2.2199   -1.4828    0.5772 H   0  0  0  0  0  0  0  0  0  0  0  0
    2.2156   -1.1528   -1.1830 H   0  0  0  0  0  0  0  0  0  0  0  0
   -0.0778   -1.5509    1.5295 H   0  0  0  0  0  0  0  0  0  0  0  0
   -2.4581   -0.9610    0.3688 H   0  0  0  0  0  0  0  0  0  0  0  0
   -1.1181    1.0851    1.8927 H   0  0  0  0  0  0  0  0  0  0  0  0
   -2.2686    1.3774   -0.9164 H   0  0  0  0  0  0  0  0  0  0  0  0
    0.5052    1.2586   -1.6449 H   0  0  0  0  0  0  0  0  0  0  0  0
  1  2  1  0
  2  3  1  0
  3  4  2  0
  4  5  1  0
  5  6  1  0
  5  7  1  0
  7  8  1  0
  8  9  1  0
  9  3  1  0
  9  7  1  0
  1 10  1  0
  2 11  1  0
  2 12  1  0
  4 13  1  0
  5 14  1  0
  6 15  1  0
  7 16  1  0
  9 17  1  0
M  END
