
     RDKit          3D

 15 15  0  0  0  0  0  0  0  0999 V2000
   -1.8833   -1.1979   -0.8234 O   0  0  0  0  0  0  0  0  0  0  0  0
   -1.3289   -0.4398    0.2117 C   0  0  0  0  0  0  0  0  0  0  0  0
   -0.0382    0.1711   -0.2861 C   0  0  0  0  0  0  0  0  0  0  0  0
    1.1914   -0.6935   -0.2481 C   0  0  0  0  0  0  0  0  0  0  0  0
    2.3364    0.1240   -0.1996 O   0  0  0  0  0  0  0  0  0  0  0  0
    0.0765    1.6417   -0.1018 C   0  0  0  0  0  0  0  0  0  0  0  0
   -0.0877    1.0241   -1.3884 O   0  0  0  0  0  0  0  0  0  0  0  0
   -2.8694   -1.2401   -0.7703 H   0  0  0  0  0  0  0  0  0  0  0  0
   -2.0481    0.3136    0.5674 H   0  0  0  0  0  0  0  0  0  0  0  0
   -1.0555   -1.1471    1.0177 H   0  0  0  0  0  0  0  0  0  0  0  0
    1.1842   -1.3475    0.6456 H   0  0  0  0  0  0  0  0  0  0  0  0
    1.2391   -1.2556   -1.1953 H   0  0  0  0  0  0  0  0  0  0  0  0
    3.0117   -0.1875   -0.8532 H   0  0  0  0  0  0  0  0  0  0  0  0
    1.0869    2.0270    0.1148 H   0  0  0  0  0  0  0  0  0  0  0  0
   -0.8152    2.2077    0.2144 H   0  0  0  0  0  0  0  0  0  0  0  0
  1  2  1  0
  2  3  1  0
  3  4  1  0
  4  5  1  0
  3  6  1  0
  6  7  1  0
  7  3  1  0
  1  8  1  0
  2  9  1  0
  2 10  1  0
  4 11  1  0
  4 12  1  0
  5 13  1  0
  6 14  1  0
  6 15  1  0
M  END
