
     RDKit          3D

 21 21  0  0  0  0  0  0  0  0999 V2000
   -3.0823    0.4531   -0.5434 O   0  0  0  0  0  0  0  0  0  0  0  0
   -2.2305   -0.3915    0.2069 C   0  0  0  0  0  0  0  0  0  0  0  0
   -0.8718   -0.2827   -0.4332 C   0  0  0  0  0  0  0  0  0  0  0  0
    0.2103   -1.1193    0.2209 C   0  0  0  0  0  0  0  0  0  0  0  0
    1.1456    0.0238   -0.1525 C   0  0  0  0  0  0  0  0  0  0  0  0
    2.2702    0.2459    0.8115 C   0  0  0  0  0  0  0  0  0  0  0  0
    3.0190   -0.9528    0.8448 O   0  0  0  0  0  0  0  0  0  0  0  0
   -0.0610    0.9334    0.0385 C   0  0  0  0  0  0  0  0  0  0  0  0
   -0.1310    1.9936   -0.8278 O   0  0  0  0  0  0  0  0  0  0  0  0
   -3.7366   -0.0544   -1.0651 H   0  0  0  0  0  0  0  0  0  0  0  0
   -2.5976   -1.4277    0.0981 H   0  0  0  0  0  0  0  0  0  0  0  0
   -2.2517   -0.0012    1.2281 H   0  0  0  0  0  0  0  0  0  0  0  0
   -0.8429   -0.3919   -1.5244 H   0  0  0  0  0  0  0  0  0  0  0  0
    0.4564   -2.0605   -0.2710 H   0  0  0  0  0  0  0  0  0  0  0  0
    0.0799   -1.1614    1.3268 H   0  0  0  0  0  0  0  0  0  0  0  0
    1.4177   -0.0626   -1.2040 H   0  0  0  0  0  0  0  0  0  0  0  0
    1.8757    0.4417    1.8125 H   0  0  0  0  0  0  0  0  0  0  0  0
    2.9131    1.0417    0.4073 H   0  0  0  0  0  0  0  0  0  0  0  0
    3.5960   -0.9294    0.0395 H   0  0  0  0  0  0  0  0  0  0  0  0
   -0.3076    1.1355    1.0972 H   0  0  0  0  0  0  0  0  0  0  0  0
   -0.8707    2.5667   -0.5746 H   0  0  0  0  0  0  0  0  0  0  0  0
  1  2  1  0
  2  3  1  0
  3  4  1  0
  4  5  1  0
  5  6  1  0
  6  7  1  0
  5  8  1  0
  8  9  1  0
  8  3  1  0
  1 10  1  0
  2 11  1  0
  2 12  1  0
  3 13  1  0
  4 14  1  0
  4 15  1  0
  5 16  1  0
  6 17  1  0
  6 18  1  0
  7 19  1  0
  8 20  1  0
  9 21  1  0
M  END
