
     RDKit          3D

 21 21  0  0  0  0  0  0  0  0999 V2000
    2.4038    0.9943   -1.1018 O   0  0  0  0  0  0  0  0  0  0  0  0
    1.5202   -0.0457   -0.9030 C   0  0  0  0  0  0  0  0  0  0  0  0
    0.7710    0.0771    0.4218 C   0  0  0  0  0  0  0  0  0  0  0  0
    1.7500    0.0679    1.4262 O   0  0  0  0  0  0  0  0  0  0  0  0
    0.0169    1.3572    0.4881 C   0  0  0  0  0  0  0  0  0  0  0  0
   -1.2122    1.4132   -0.0131 C   0  0  0  0  0  0  0  0  0  0  0  0
   -1.8248    0.2291   -0.6265 C   0  0  0  0  0  0  0  0  0  0  0  0
   -1.4522   -1.0466    0.0373 C   0  0  0  0  0  0  0  0  0  0  0  0
   -0.0902   -1.1189    0.6093 C   0  0  0  0  0  0  0  0  0  0  0  0
    3.2188    0.9445   -0.5452 H   0  0  0  0  0  0  0  0  0  0  0  0
    2.0560   -1.0177   -0.8947 H   0  0  0  0  0  0  0  0  0  0  0  0
    0.7820   -0.0009   -1.7579 H   0  0  0  0  0  0  0  0  0  0  0  0
    1.4519   -0.4711    2.2136 H   0  0  0  0  0  0  0  0  0  0  0  0
    0.4211    2.2614    0.9297 H   0  0  0  0  0  0  0  0  0  0  0  0
   -1.7738    2.3378    0.0277 H   0  0  0  0  0  0  0  0  0  0  0  0
   -2.9464    0.3280   -0.5765 H   0  0  0  0  0  0  0  0  0  0  0  0
   -1.6157    0.1909   -1.7365 H   0  0  0  0  0  0  0  0  0  0  0  0
   -2.2334   -1.3034    0.8058 H   0  0  0  0  0  0  0  0  0  0  0  0
   -1.5561   -1.8654   -0.7336 H   0  0  0  0  0  0  0  0  0  0  0  0
   -0.1707   -1.3242    1.7147 H   0  0  0  0  0  0  0  0  0  0  0  0
    0.4841   -2.0075    0.2145 H   0  0  0  0  0  0  0  0  0  0  0  0
  1  2  1  0
  2  3  1  0
  3  4  1  0
  3  5  1  0
  5  6  2  0
  6  7  1  0
  7  8  1  0
  8  9  1  0
  9  3  1  0
  1 10  1  0
  2 11  1  0
  2 12  1  0
  4 13  1  0
  5 14  1  0
  6 15  1  0
  7 16  1  0
  7 17  1  0
  8 18  1  0
  8 19  1  0
  9 20  1  0
  9 21  1  0
M  END
