
     RDKit          3D

 16 17  0  0  0  0  0  0  0  0999 V2000
   -2.6275    0.5395   -0.0439 O   0  0  0  0  0  0  0  0  0  0  0  0
   -1.6535   -0.2937    0.4792 C   0  0  0  0  0  0  0  0  0  0  0  0
   -0.3542   -0.2384   -0.2984 C   0  0  0  0  0  0  0  0  0  0  0  0
   -0.4470   -0.6053   -1.6336 O   0  0  0  0  0  0  0  0  0  0  0  0
    0.8985   -0.6043    0.3907 C   0  0  0  0  0  0  0  0  0  0  0  0
    2.2334   -0.0841   -0.0100 C   0  0  0  0  0  0  0  0  0  0  0  0
    1.7164    0.9347   -0.7775 O   0  0  0  0  0  0  0  0  0  0  0  0
    0.5584    0.8756    0.0216 C   0  0  0  0  0  0  0  0  0  0  0  0
   -2.3925    0.9767   -0.8789 H   0  0  0  0  0  0  0  0  0  0  0  0
   -2.0913   -1.3330    0.4620 H   0  0  0  0  0  0  0  0  0  0  0  0
   -1.4556    0.0322    1.5378 H   0  0  0  0  0  0  0  0  0  0  0  0
   -1.3610   -0.4381   -1.9254 H   0  0  0  0  0  0  0  0  0  0  0  0
    0.8007   -0.8715    1.4575 H   0  0  0  0  0  0  0  0  0  0  0  0
    2.7999    0.3674    0.8567 H   0  0  0  0  0  0  0  0  0  0  0  0
    2.9177   -0.7842   -0.5224 H   0  0  0  0  0  0  0  0  0  0  0  0
    0.4574    1.5265    0.8847 H   0  0  0  0  0  0  0  0  0  0  0  0
  1  2  1  0
  2  3  1  0
  3  4  1  0
  3  5  1  0
  5  6  1  0
  6  7  1  0
  7  8  1  0
  8  3  1  0
  8  5  1  0
  1  9  1  0
  2 10  1  0
  2 11  1  0
  4 12  1  0
  5 13  1  0
  6 14  1  0
  6 15  1  0
  8 16  1  0
M  END
