
     RDKit          3D

 19 20  0  0  0  0  0  0  0  0999 V2000
    3.0186    0.5629   -0.4787 O   0  0  0  0  0  0  0  0  0  0  0  0
    2.0960   -0.4624   -0.6586 C   0  0  0  0  0  0  0  0  0  0  0  0
    0.7992   -0.1288   -0.0109 C   0  0  0  0  0  0  0  0  0  0  0  0
    0.1825   -0.8165    0.9652 C   0  0  0  0  0  0  0  0  0  0  0  0
   -1.0309   -0.0350    1.3053 C   0  0  0  0  0  0  0  0  0  0  0  0
   -2.0913   -0.1329    0.2207 C   0  0  0  0  0  0  0  0  0  0  0  0
   -1.3386    0.4616   -0.9537 C   0  0  0  0  0  0  0  0  0  0  0  0
   -0.1067    1.0188   -0.2806 C   0  0  0  0  0  0  0  0  0  0  0  0
   -0.5676    1.2779    1.0327 O   0  0  0  0  0  0  0  0  0  0  0  0
    3.4840    0.4242    0.4030 H   0  0  0  0  0  0  0  0  0  0  0  0
    1.8958   -0.5680   -1.7396 H   0  0  0  0  0  0  0  0  0  0  0  0
    2.5420   -1.3838   -0.2381 H   0  0  0  0  0  0  0  0  0  0  0  0
    0.4943   -1.7503    1.4205 H   0  0  0  0  0  0  0  0  0  0  0  0
   -1.3995   -0.1592    2.3053 H   0  0  0  0  0  0  0  0  0  0  0  0
   -2.4428   -1.1487    0.0464 H   0  0  0  0  0  0  0  0  0  0  0  0
   -2.8949    0.5821    0.5149 H   0  0  0  0  0  0  0  0  0  0  0  0
   -1.9205    1.2250   -1.4879 H   0  0  0  0  0  0  0  0  0  0  0  0
   -1.0632   -0.4110   -1.6068 H   0  0  0  0  0  0  0  0  0  0  0  0
    0.3437    1.8643   -0.7592 H   0  0  0  0  0  0  0  0  0  0  0  0
  1  2  1  0
  2  3  1  0
  3  4  2  0
  4  5  1  0
  5  6  1  0
  6  7  1  0
  7  8  1  0
  8  9  1  0
  8  3  1  0
  9  5  1  0
  1 10  1  0
  2 11  1  0
  2 12  1  0
  4 13  1  0
  5 14  1  0
  6 15  1  0
  6 16  1  0
  7 17  1  0
  7 18  1  0
  8 19  1  0
M  END
