
     RDKit          3D

 21 21  0  0  0  0  0  0  0  0999 V2000
    2.1301   -0.1082    1.1757 O   0  0  0  0  0  0  0  0  0  0  0  0
    2.0619    0.1426   -0.1778 C   0  0  0  0  0  0  0  0  0  0  0  0
    0.6511    0.3498   -0.6784 C   0  0  0  0  0  0  0  0  0  0  0  0
    0.0539    1.5096    0.0272 C   0  0  0  0  0  0  0  0  0  0  0  0
   -1.1923    1.5950    0.4507 C   0  0  0  0  0  0  0  0  0  0  0  0
   -2.0799    0.4223    0.1982 C   0  0  0  0  0  0  0  0  0  0  0  0
   -1.2315   -0.8188    0.4959 C   0  0  0  0  0  0  0  0  0  0  0  0
   -0.1842   -0.8827   -0.6093 C   0  0  0  0  0  0  0  0  0  0  0  0
    0.5708   -2.0293   -0.3761 O   0  0  0  0  0  0  0  0  0  0  0  0
    2.9435   -0.6679    1.3846 H   0  0  0  0  0  0  0  0  0  0  0  0
    2.5514   -0.6769   -0.7629 H   0  0  0  0  0  0  0  0  0  0  0  0
    2.6478    1.0581   -0.4018 H   0  0  0  0  0  0  0  0  0  0  0  0
    0.7555    0.6494   -1.7616 H   0  0  0  0  0  0  0  0  0  0  0  0
    0.7056    2.3569    0.2064 H   0  0  0  0  0  0  0  0  0  0  0  0
   -1.5810    2.4496    0.9547 H   0  0  0  0  0  0  0  0  0  0  0  0
   -2.3224    0.4559   -0.8907 H   0  0  0  0  0  0  0  0  0  0  0  0
   -2.9857    0.4458    0.8262 H   0  0  0  0  0  0  0  0  0  0  0  0
   -0.7916   -0.7191    1.4937 H   0  0  0  0  0  0  0  0  0  0  0  0
   -1.9025   -1.6737    0.4175 H   0  0  0  0  0  0  0  0  0  0  0  0
   -0.7494   -1.0539   -1.5553 H   0  0  0  0  0  0  0  0  0  0  0  0
   -0.0511   -2.8043   -0.4167 H   0  0  0  0  0  0  0  0  0  0  0  0
  1  2  1  0
  2  3  1  0
  3  4  1  0
  4  5  2  0
  5  6  1  0
  6  7  1  0
  7  8  1  0
  8  9  1  0
  8  3  1  0
  1 10  1  0
  2 11  1  0
  2 12  1  0
  3 13  1  0
  4 14  1  0
  5 15  1  0
  6 16  1  0
  6 17  1  0
  7 18  1  0
  7 19  1  0
  8 20  1  0
  9 21  1  0
M  END
