
     RDKit          3D

 23 24  0  0  0  0  0  0  0  0999 V2000
    2.5753    0.8104    0.2629 O   0  0  0  0  0  0  0  0  0  0  0  0
    2.2306    0.1733   -0.9064 C   0  0  0  0  0  0  0  0  0  0  0  0
    0.9330   -0.5286   -0.9118 C   0  0  0  0  0  0  0  0  0  0  0  0
    0.8158   -1.5972    0.1224 C   0  0  0  0  0  0  0  0  0  0  0  0
   -0.1447   -0.4680    0.1055 C   0  0  0  0  0  0  0  0  0  0  0  0
   -0.2029    0.6361    1.0673 C   0  0  0  0  0  0  0  0  0  0  0  0
   -1.3989    1.4584    0.5379 C   0  0  0  0  0  0  0  0  0  0  0  0
   -2.3885    0.3993    0.1784 C   0  0  0  0  0  0  0  0  0  0  0  0
   -1.5819   -0.7717   -0.3259 C   0  0  0  0  0  0  0  0  0  0  0  0
    3.4497    0.5490    0.6217 H   0  0  0  0  0  0  0  0  0  0  0  0
    2.3387    0.8508   -1.8011 H   0  0  0  0  0  0  0  0  0  0  0  0
    3.0230   -0.6188   -1.0765 H   0  0  0  0  0  0  0  0  0  0  0  0
    0.5234   -0.7332   -1.9447 H   0  0  0  0  0  0  0  0  0  0  0  0
    0.4230   -2.5647   -0.2641 H   0  0  0  0  0  0  0  0  0  0  0  0
    1.5818   -1.7139    0.8869 H   0  0  0  0  0  0  0  0  0  0  0  0
   -0.4483    0.3282    2.1141 H   0  0  0  0  0  0  0  0  0  0  0  0
    0.6183    1.3680    1.0855 H   0  0  0  0  0  0  0  0  0  0  0  0
   -1.0726    2.0768   -0.3245 H   0  0  0  0  0  0  0  0  0  0  0  0
   -1.7249    2.1441    1.3240 H   0  0  0  0  0  0  0  0  0  0  0  0
   -3.0666    0.7331   -0.6404 H   0  0  0  0  0  0  0  0  0  0  0  0
   -2.9490    0.1243    1.1020 H   0  0  0  0  0  0  0  0  0  0  0  0
   -1.6684   -0.9278   -1.4021 H   0  0  0  0  0  0  0  0  0  0  0  0
   -1.8661   -1.7278    0.1888 H   0  0  0  0  0  0  0  0  0  0  0  0
  1  2  1  0
  2  3  1  0
  3  4  1  0
  4  5  1  0
  5  6  1  0
  6  7  1  0
  7  8  1  0
  8  9  1  0
  5  3  1  0
  9  5  1  0
  1 10  1  0
  2 11  1  0
  2 12  1  0
  3 13  1  0
  4 14  1  0
  4 15  1  0
  6 16  1  0
  6 17  1  0
  7 18  1  0
  7 19  1  0
  8 20  1  0
  8 21  1  0
  9 22  1  0
  9 23  1  0
M  END
