
     RDKit          3D

 21 22  0  0  0  0  0  0  0  0999 V2000
    1.8853    0.5974    1.1719 O   0  0  0  0  0  0  0  0  0  0  0  0
    2.2875   -0.3264    0.2039 C   0  0  0  0  0  0  0  0  0  0  0  0
    1.0094   -0.8390   -0.4483 C   0  0  0  0  0  0  0  0  0  0  0  0
    0.1975    0.2698   -1.1058 C   0  0  0  0  0  0  0  0  0  0  0  0
   -0.8449    0.0670   -0.0810 C   0  0  0  0  0  0  0  0  0  0  0  0
   -1.4110    1.2075    0.6398 C   0  0  0  0  0  0  0  0  0  0  0  0
   -2.5269    1.1707   -0.2291 O   0  0  0  0  0  0  0  0  0  0  0  0
   -2.2353   -0.1905   -0.4806 C   0  0  0  0  0  0  0  0  0  0  0  0
   -0.0728   -0.9650    0.6276 C   0  0  0  0  0  0  0  0  0  0  0  0
    2.4958    1.3757    1.2020 H   0  0  0  0  0  0  0  0  0  0  0  0
    2.7410   -1.1793    0.7492 H   0  0  0  0  0  0  0  0  0  0  0  0
    2.9976    0.0879   -0.5166 H   0  0  0  0  0  0  0  0  0  0  0  0
    1.1252   -1.7076   -1.0962 H   0  0  0  0  0  0  0  0  0  0  0  0
   -0.1570    0.0299   -2.1227 H   0  0  0  0  0  0  0  0  0  0  0  0
    0.6722    1.2673   -1.0431 H   0  0  0  0  0  0  0  0  0  0  0  0
   -0.8742    2.1606    0.4850 H   0  0  0  0  0  0  0  0  0  0  0  0
   -1.7354    1.0213    1.6829 H   0  0  0  0  0  0  0  0  0  0  0  0
   -2.4553   -0.5146   -1.5037 H   0  0  0  0  0  0  0  0  0  0  0  0
   -2.7778   -0.7805    0.3126 H   0  0  0  0  0  0  0  0  0  0  0  0
   -0.5880   -1.9647    0.5631 H   0  0  0  0  0  0  0  0  0  0  0  0
    0.2671   -0.7873    1.6486 H   0  0  0  0  0  0  0  0  0  0  0  0
  1  2  1  0
  2  3  1  0
  3  4  1  0
  4  5  1  0
  5  6  1  0
  6  7  1  0
  7  8  1  0
  5  9  1  0
  9  3  1  0
  8  5  1  0
  1 10  1  0
  2 11  1  0
  2 12  1  0
  3 13  1  0
  4 14  1  0
  4 15  1  0
  6 16  1  0
  6 17  1  0
  8 18  1  0
  8 19  1  0
  9 20  1  0
  9 21  1  0
M  END
