
     RDKit          3D

 18 19  0  0  0  0  0  0  0  0999 V2000
    2.5163   -0.9482   -0.0399 O   0  0  0  0  0  0  0  0  0  0  0  0
    1.7816    0.2346   -0.1074 C   0  0  0  0  0  0  0  0  0  0  0  0
    0.4264   -0.0629    0.4675 C   0  0  0  0  0  0  0  0  0  0  0  0
   -0.4813    1.1797    0.4458 C   0  0  0  0  0  0  0  0  0  0  0  0
   -1.5965    0.5784   -0.4079 C   0  0  0  0  0  0  0  0  0  0  0  0
   -1.7605   -0.8162    0.1435 C   0  0  0  0  0  0  0  0  0  0  0  0
   -0.3923   -0.8913   -0.5031 C   0  0  0  0  0  0  0  0  0  0  0  0
   -0.8812    0.0169   -1.4504 O   0  0  0  0  0  0  0  0  0  0  0  0
    3.4803   -0.8073   -0.1276 H   0  0  0  0  0  0  0  0  0  0  0  0
    2.2888    1.0520    0.4270 H   0  0  0  0  0  0  0  0  0  0  0  0
    1.7048    0.5092   -1.1701 H   0  0  0  0  0  0  0  0  0  0  0  0
    0.4979   -0.5004    1.4658 H   0  0  0  0  0  0  0  0  0  0  0  0
   -0.0100    2.0171   -0.0757 H   0  0  0  0  0  0  0  0  0  0  0  0
   -0.8975    1.3986    1.4273 H   0  0  0  0  0  0  0  0  0  0  0  0
   -2.4547    1.1713   -0.6018 H   0  0  0  0  0  0  0  0  0  0  0  0
   -2.5381   -1.4067   -0.3237 H   0  0  0  0  0  0  0  0  0  0  0  0
   -1.6614   -0.8953    1.2582 H   0  0  0  0  0  0  0  0  0  0  0  0
   -0.0226   -1.8294   -0.8274 H   0  0  0  0  0  0  0  0  0  0  0  0
  1  2  1  0
  2  3  1  0
  3  4  1  0
  4  5  1  0
  5  6  1  0
  6  7  1  0
  7  8  1  0
  7  3  1  0
  8  5  1  0
  1  9  1  0
  2 10  1  0
  2 11  1  0
  3 12  1  0
  4 13  1  0
  4 14  1  0
  5 15  1  0
  6 16  1  0
  6 17  1  0
  7 18  1  0
M  END
