
     RDKit          3D

 21 22  0  0  0  0  0  0  0  0999 V2000
    2.6282   -0.0881    0.5609 O   0  0  0  0  0  0  0  0  0  0  0  0
    1.8439   -0.4234   -0.5118 C   0  0  0  0  0  0  0  0  0  0  0  0
    0.4401   -0.2505   -0.2275 C   0  0  0  0  0  0  0  0  0  0  0  0
   -0.2386   -0.9863    0.8681 C   0  0  0  0  0  0  0  0  0  0  0  0
   -1.6419   -0.3488    0.7602 C   0  0  0  0  0  0  0  0  0  0  0  0
   -1.4181    0.4938   -0.4637 C   0  0  0  0  0  0  0  0  0  0  0  0
   -0.5587   -0.4041   -1.3687 C   0  0  0  0  0  0  0  0  0  0  0  0
   -0.1072    1.1837   -0.1415 C   0  0  0  0  0  0  0  0  0  0  0  0
   -0.0205    1.7268    1.1256 O   0  0  0  0  0  0  0  0  0  0  0  0
    2.2097   -0.2022    1.4371 H   0  0  0  0  0  0  0  0  0  0  0  0
    2.1329    0.2756   -1.3502 H   0  0  0  0  0  0  0  0  0  0  0  0
    2.0430   -1.4357   -0.9101 H   0  0  0  0  0  0  0  0  0  0  0  0
    0.1875   -0.8048    1.8705 H   0  0  0  0  0  0  0  0  0  0  0  0
   -0.3784   -2.0507    0.6492 H   0  0  0  0  0  0  0  0  0  0  0  0
   -1.7810    0.2762    1.6532 H   0  0  0  0  0  0  0  0  0  0  0  0
   -2.4171   -1.0949    0.5921 H   0  0  0  0  0  0  0  0  0  0  0  0
   -2.2053    1.0393   -0.9074 H   0  0  0  0  0  0  0  0  0  0  0  0
   -0.9184   -1.4366   -1.4000 H   0  0  0  0  0  0  0  0  0  0  0  0
   -0.2747    0.0675   -2.3121 H   0  0  0  0  0  0  0  0  0  0  0  0
    0.3354    1.7652   -0.9648 H   0  0  0  0  0  0  0  0  0  0  0  0
    0.1393    2.6982    1.0410 H   0  0  0  0  0  0  0  0  0  0  0  0
  1  2  1  0
  2  3  1  0
  3  4  1  0
  4  5  1  0
  5  6  1  0
  6  7  1  0
  6  8  1  0
  8  9  1  0
  7  3  1  0
  8  3  1  0
  1 10  1  0
  2 11  1  0
  2 12  1  0
  4 13  1  0
  4 14  1  0
  5 15  1  0
  5 16  1  0
  6 17  1  0
  7 18  1  0
  7 19  1  0
  8 20  1  0
  9 21  1  0
M  END
