
     RDKit          3D

 19 20  0  0  0  0  0  0  0  0999 V2000
   -1.8530    1.8053   -0.7424 O   0  0  0  0  0  0  0  0  0  0  0  0
   -1.7173    0.4383   -0.8543 C   0  0  0  0  0  0  0  0  0  0  0  0
   -1.0485   -0.1216    0.3800 C   0  0  0  0  0  0  0  0  0  0  0  0
   -0.8130   -1.6276    0.4360 C   0  0  0  0  0  0  0  0  0  0  0  0
    0.3021   -0.6911    0.3364 C   0  0  0  0  0  0  0  0  0  0  0  0
    1.1940   -0.5926   -0.8149 C   0  0  0  0  0  0  0  0  0  0  0  0
    2.1440    0.2707   -0.4851 C   0  0  0  0  0  0  0  0  0  0  0  0
    1.8272    0.7194    0.9160 C   0  0  0  0  0  0  0  0  0  0  0  0
    1.1331   -0.3834    1.4102 O   0  0  0  0  0  0  0  0  0  0  0  0
   -1.7829    2.0701    0.2054 H   0  0  0  0  0  0  0  0  0  0  0  0
   -2.7569    0.0059   -0.9031 H   0  0  0  0  0  0  0  0  0  0  0  0
   -1.1920    0.1035   -1.7599 H   0  0  0  0  0  0  0  0  0  0  0  0
   -1.3884    0.3511    1.3288 H   0  0  0  0  0  0  0  0  0  0  0  0
   -0.9297   -2.1255    1.4435 H   0  0  0  0  0  0  0  0  0  0  0  0
   -1.1254   -2.1977   -0.4512 H   0  0  0  0  0  0  0  0  0  0  0  0
    1.1149   -1.1096   -1.7556 H   0  0  0  0  0  0  0  0  0  0  0  0
    2.9896    0.6099   -1.0719 H   0  0  0  0  0  0  0  0  0  0  0  0
    2.7291    0.8642    1.5177 H   0  0  0  0  0  0  0  0  0  0  0  0
    1.1731    1.6106    0.8645 H   0  0  0  0  0  0  0  0  0  0  0  0
  1  2  1  0
  2  3  1  0
  3  4  1  0
  4  5  1  0
  5  6  1  0
  6  7  2  0
  7  8  1  0
  8  9  1  0
  5  3  1  0
  9  5  1  0
  1 10  1  0
  2 11  1  0
  2 12  1  0
  3 13  1  0
  4 14  1  0
  4 15  1  0
  6 16  1  0
  7 17  1  0
  8 18  1  0
  8 19  1  0
M  END
