
     RDKit          3D

 21 22  0  0  0  0  0  0  0  0999 V2000
   -2.9260    0.6419   -0.2228 O   0  0  0  0  0  0  0  0  0  0  0  0
   -1.9769   -0.3338   -0.3950 C   0  0  0  0  0  0  0  0  0  0  0  0
   -0.8365   -0.2429    0.5750 C   0  0  0  0  0  0  0  0  0  0  0  0
    0.1924   -1.3367    0.3548 C   0  0  0  0  0  0  0  0  0  0  0  0
    1.5205   -0.6528    0.5091 C   0  0  0  0  0  0  0  0  0  0  0  0
    1.7854    0.0538   -0.7938 C   0  0  0  0  0  0  0  0  0  0  0  0
    0.7759    0.9140   -0.9165 C   0  0  0  0  0  0  0  0  0  0  0  0
    0.0160    0.9903    0.3650 C   0  0  0  0  0  0  0  0  0  0  0  0
    1.1552    0.5954    1.3304 C   0  0  0  0  0  0  0  0  0  0  0  0
   -2.4630    1.4842   -0.0108 H   0  0  0  0  0  0  0  0  0  0  0  0
   -1.5389   -0.3667   -1.4146 H   0  0  0  0  0  0  0  0  0  0  0  0
   -2.4630   -1.3197   -0.2357 H   0  0  0  0  0  0  0  0  0  0  0  0
   -1.1425   -0.2987    1.6359 H   0  0  0  0  0  0  0  0  0  0  0  0
    0.0554   -1.6428   -0.7237 H   0  0  0  0  0  0  0  0  0  0  0  0
    0.0486   -2.1814    1.0436 H   0  0  0  0  0  0  0  0  0  0  0  0
    2.3283   -1.2190    0.8948 H   0  0  0  0  0  0  0  0  0  0  0  0
    2.6202   -0.1357   -1.4397 H   0  0  0  0  0  0  0  0  0  0  0  0
    0.5328    1.4781   -1.8045 H   0  0  0  0  0  0  0  0  0  0  0  0
   -0.4366    1.9249    0.5907 H   0  0  0  0  0  0  0  0  0  0  0  0
    0.7764    0.3466    2.3150 H   0  0  0  0  0  0  0  0  0  0  0  0
    1.9764    1.3008    1.2773 H   0  0  0  0  0  0  0  0  0  0  0  0
  1  2  1  0
  2  3  1  0
  3  4  1  0
  4  5  1  0
  5  6  1  0
  6  7  2  0
  7  8  1  0
  8  9  1  0
  8  3  1  0
  9  5  1  0
  1 10  1  0
  2 11  1  0
  2 12  1  0
  3 13  1  0
  4 14  1  0
  4 15  1  0
  5 16  1  0
  6 17  1  0
  7 18  1  0
  8 19  1  0
  9 20  1  0
  9 21  1  0
M  END
