
     RDKit          3D

 19 20  0  0  0  0  0  0  0  0999 V2000
    2.3725    0.7544    0.5615 O   0  0  0  0  0  0  0  0  0  0  0  0
    2.1422   -0.6077    0.6913 C   0  0  0  0  0  0  0  0  0  0  0  0
    0.8814   -1.0893    0.0587 C   0  0  0  0  0  0  0  0  0  0  0  0
    0.8301   -0.8321   -1.3929 O   0  0  0  0  0  0  0  0  0  0  0  0
   -0.1613   -0.3440   -0.5429 C   0  0  0  0  0  0  0  0  0  0  0  0
   -1.5136   -0.9432   -0.6119 C   0  0  0  0  0  0  0  0  0  0  0  0
   -2.4095   -0.1149   -0.1533 C   0  0  0  0  0  0  0  0  0  0  0  0
   -1.7604    1.1356    0.2751 C   0  0  0  0  0  0  0  0  0  0  0  0
   -0.4072    1.1184   -0.4475 C   0  0  0  0  0  0  0  0  0  0  0  0
    3.3276    0.9557    0.5050 H   0  0  0  0  0  0  0  0  0  0  0  0
    2.2094   -0.8373    1.7663 H   0  0  0  0  0  0  0  0  0  0  0  0
    3.0408   -1.1031    0.2252 H   0  0  0  0  0  0  0  0  0  0  0  0
    0.7239   -2.2011    0.1852 H   0  0  0  0  0  0  0  0  0  0  0  0
   -1.6696   -1.9688   -1.0135 H   0  0  0  0  0  0  0  0  0  0  0  0
   -3.4745   -0.3017   -0.0897 H   0  0  0  0  0  0  0  0  0  0  0  0
   -2.3615    2.0079   -0.0078 H   0  0  0  0  0  0  0  0  0  0  0  0
   -1.5002    1.1184    1.3678 H   0  0  0  0  0  0  0  0  0  0  0  0
    0.3250    1.7166    0.0862 H   0  0  0  0  0  0  0  0  0  0  0  0
   -0.5955    1.5362   -1.4628 H   0  0  0  0  0  0  0  0  0  0  0  0
  1  2  1  0
  2  3  1  0
  3  4  1  0
  4  5  1  0
  5  6  1  0
  6  7  2  0
  7  8  1  0
  8  9  1  0
  5  3  1  0
  9  5  1  0
  1 10  1  0
  2 11  1  0
  2 12  1  0
  3 13  1  0
  6 14  1  0
  7 15  1  0
  8 16  1  0
  8 17  1  0
  9 18  1  0
  9 19  1  0
M  END
