
     RDKit          3D

 20 20  0  0  0  0  0  0  0  0999 V2000
    2.7539   -0.6319    0.1889 O   0  0  0  0  0  0  0  0  0  0  0  0
    1.9366    0.5051    0.3262 C   0  0  0  0  0  0  0  0  0  0  0  0
    0.6744    0.2968   -0.5270 C   0  0  0  0  0  0  0  0  0  0  0  0
    0.1286   -1.0316   -0.2085 C   0  0  0  0  0  0  0  0  0  0  0  0
   -1.0534   -1.0567    0.6998 C   0  0  0  0  0  0  0  0  0  0  0  0
   -2.0073    0.0081    0.1709 C   0  0  0  0  0  0  0  0  0  0  0  0
   -1.2741    1.3089    0.2568 C   0  0  0  0  0  0  0  0  0  0  0  0
   -0.1049    1.3765   -0.3984 O   0  0  0  0  0  0  0  0  0  0  0  0
    3.6913   -0.3066    0.2052 H   0  0  0  0  0  0  0  0  0  0  0  0
    2.4518    1.4223    0.0385 H   0  0  0  0  0  0  0  0  0  0  0  0
    1.5769    0.4920    1.3800 H   0  0  0  0  0  0  0  0  0  0  0  0
    1.0697    0.2654   -1.5869 H   0  0  0  0  0  0  0  0  0  0  0  0
    0.9165   -1.6888    0.2609 H   0  0  0  0  0  0  0  0  0  0  0  0
   -0.1625   -1.5831   -1.1467 H   0  0  0  0  0  0  0  0  0  0  0  0
   -0.7472   -0.8607    1.7443 H   0  0  0  0  0  0  0  0  0  0  0  0
   -1.5821   -2.0126    0.6291 H   0  0  0  0  0  0  0  0  0  0  0  0
   -2.1441   -0.2270   -0.9214 H   0  0  0  0  0  0  0  0  0  0  0  0
   -2.9457    0.0548    0.7134 H   0  0  0  0  0  0  0  0  0  0  0  0
   -1.2142    1.5787    1.3513 H   0  0  0  0  0  0  0  0  0  0  0  0
   -1.9641    2.0903   -0.1749 H   0  0  0  0  0  0  0  0  0  0  0  0
  1  2  1  0
  2  3  1  0
  3  4  1  0
  4  5  1  0
  5  6  1  0
  6  7  1  0
  7  8  1  0
  8  3  1  0
  1  9  1  0
  2 10  1  0
  2 11  1  0
  3 12  1  0
  4 13  1  0
  4 14  1  0
  5 15  1  0
  5 16  1  0
  6 17  1  0
  6 18  1  0
  7 19  1  0
  7 20  1  0
M  END
