
     RDKit          3D

 18 19  0  0  0  0  0  0  0  0999 V2000
    2.2635    0.9331    0.4922 O   0  0  0  0  0  0  0  0  0  0  0  0
    1.3319    0.8329   -0.5203 C   0  0  0  0  0  0  0  0  0  0  0  0
    0.1963    0.0658   -0.1042 C   0  0  0  0  0  0  0  0  0  0  0  0
    0.2898   -1.3451    0.3390 C   0  0  0  0  0  0  0  0  0  0  0  0
   -1.0703   -1.5898    0.6697 O   0  0  0  0  0  0  0  0  0  0  0  0
   -1.6953   -0.4308    0.2840 C   0  0  0  0  0  0  0  0  0  0  0  0
   -1.0302    0.0070   -1.0268 C   0  0  0  0  0  0  0  0  0  0  0  0
   -0.7849    0.6418    0.9080 C   0  0  0  0  0  0  0  0  0  0  0  0
    2.9117    0.1587    0.4823 H   0  0  0  0  0  0  0  0  0  0  0  0
    1.7954    0.4031   -1.4213 H   0  0  0  0  0  0  0  0  0  0  0  0
    1.0262    1.8652   -0.7930 H   0  0  0  0  0  0  0  0  0  0  0  0
    0.5618   -2.0519   -0.4698 H   0  0  0  0  0  0  0  0  0  0  0  0
    0.9020   -1.4904    1.2617 H   0  0  0  0  0  0  0  0  0  0  0  0
   -2.7409   -0.2977    0.3783 H   0  0  0  0  0  0  0  0  0  0  0  0
   -1.3265    1.0134   -1.3159 H   0  0  0  0  0  0  0  0  0  0  0  0
   -0.9488   -0.7663   -1.7861 H   0  0  0  0  0  0  0  0  0  0  0  0
   -1.0874    1.6652    0.6722 H   0  0  0  0  0  0  0  0  0  0  0  0
   -0.5943    0.3859    1.9500 H   0  0  0  0  0  0  0  0  0  0  0  0
  1  2  1  0
  2  3  1  0
  3  4  1  0
  4  5  1  0
  5  6  1  0
  6  7  1  0
  6  8  1  0
  7  3  1  0
  8  3  1  0
  1  9  1  0
  2 10  1  0
  2 11  1  0
  4 12  1  0
  4 13  1  0
  6 14  1  0
  7 15  1  0
  7 16  1  0
  8 17  1  0
  8 18  1  0
M  END
