
     RDKit          3D

 19 20  0  0  0  0  0  0  0  0999 V2000
   -2.7182   -1.1768   -0.0765 O   0  0  0  0  0  0  0  0  0  0  0  0
   -2.6988    0.0971    0.4708 C   0  0  0  0  0  0  0  0  0  0  0  0
   -1.3588    0.7648    0.3422 C   0  0  0  0  0  0  0  0  0  0  0  0
   -1.0226    0.8709   -1.0986 O   0  0  0  0  0  0  0  0  0  0  0  0
   -0.2408    0.0942   -0.0980 C   0  0  0  0  0  0  0  0  0  0  0  0
    1.1604    0.6957   -0.0670 C   0  0  0  0  0  0  0  0  0  0  0  0
    1.9661    0.1291   -1.2176 C   0  0  0  0  0  0  0  0  0  0  0  0
    2.4038   -0.8495   -0.1454 C   0  0  0  0  0  0  0  0  0  0  0  0
    2.0233    0.0908    0.8145 O   0  0  0  0  0  0  0  0  0  0  0  0
   -2.0348   -1.7805    0.3059 H   0  0  0  0  0  0  0  0  0  0  0  0
   -3.4135    0.7081   -0.1548 H   0  0  0  0  0  0  0  0  0  0  0  0
   -3.0863    0.1017    1.4888 H   0  0  0  0  0  0  0  0  0  0  0  0
   -1.3378    1.7961    0.7473 H   0  0  0  0  0  0  0  0  0  0  0  0
   -0.2222   -0.9882   -0.3327 H   0  0  0  0  0  0  0  0  0  0  0  0
    1.1654    1.8042   -0.0558 H   0  0  0  0  0  0  0  0  0  0  0  0
    1.3669   -0.3152   -2.0401 H   0  0  0  0  0  0  0  0  0  0  0  0
    2.7796    0.7985   -1.5759 H   0  0  0  0  0  0  0  0  0  0  0  0
    3.4764   -1.0860   -0.1226 H   0  0  0  0  0  0  0  0  0  0  0  0
    1.7918   -1.7551   -0.1998 H   0  0  0  0  0  0  0  0  0  0  0  0
  1  2  1  0
  2  3  1  0
  3  4  1  0
  4  5  1  0
  5  6  1  0
  6  7  1  0
  7  8  1  0
  8  9  1  0
  5  3  1  0
  9  6  1  0
  1 10  1  0
  2 11  1  0
  2 12  1  0
  3 13  1  0
  5 14  1  0
  6 15  1  0
  7 16  1  0
  7 17  1  0
  8 18  1  0
  8 19  1  0
M  END
