
     RDKit          3D

 17 18  0  0  0  0  0  0  0  0999 V2000
   -2.5791    0.1848    0.3633 O   0  0  0  0  0  0  0  0  0  0  0  0
   -1.6386    0.0703   -0.6719 C   0  0  0  0  0  0  0  0  0  0  0  0
   -0.2844    0.3207   -0.0583 C   0  0  0  0  0  0  0  0  0  0  0  0
   -0.0968    1.5359    0.5308 O   0  0  0  0  0  0  0  0  0  0  0  0
    0.8969   -0.0645   -0.9225 C   0  0  0  0  0  0  0  0  0  0  0  0
    2.0339    0.1738    0.0151 C   0  0  0  0  0  0  0  0  0  0  0  0
    1.5637   -0.4574    1.1199 C   0  0  0  0  0  0  0  0  0  0  0  0
    0.2242   -0.8930    0.6393 C   0  0  0  0  0  0  0  0  0  0  0  0
    0.5481   -1.3839   -0.6480 O   0  0  0  0  0  0  0  0  0  0  0  0
   -2.3694   -0.4806    1.0611 H   0  0  0  0  0  0  0  0  0  0  0  0
   -1.8836    0.7979   -1.4603 H   0  0  0  0  0  0  0  0  0  0  0  0
   -1.6728   -0.9363   -1.1302 H   0  0  0  0  0  0  0  0  0  0  0  0
   -0.3165    2.2397   -0.1353 H   0  0  0  0  0  0  0  0  0  0  0  0
    0.9559    0.2781   -1.9173 H   0  0  0  0  0  0  0  0  0  0  0  0
    2.9705    0.6959   -0.1257 H   0  0  0  0  0  0  0  0  0  0  0  0
    2.0428   -0.5980    2.0809 H   0  0  0  0  0  0  0  0  0  0  0  0
   -0.3951   -1.4833    1.2590 H   0  0  0  0  0  0  0  0  0  0  0  0
  1  2  1  0
  2  3  1  0
  3  4  1  0
  3  5  1  0
  5  6  1  0
  6  7  2  0
  7  8  1  0
  8  9  1  0
  8  3  1  0
  9  5  1  0
  1 10  1  0
  2 11  1  0
  2 12  1  0
  4 13  1  0
  5 14  1  0
  6 15  1  0
  7 16  1  0
  8 17  1  0
M  END
