
     RDKit          3D

 19 21  0  0  0  0  0  0  0  0999 V2000
    2.4813   -0.1784    0.7680 O   0  0  0  0  0  0  0  0  0  0  0  0
    1.9099    0.6682   -0.1802 C   0  0  0  0  0  0  0  0  0  0  0  0
    0.4645    0.4580   -0.1900 C   0  0  0  0  0  0  0  0  0  0  0  0
   -0.3807    1.0496    0.8897 C   0  0  0  0  0  0  0  0  0  0  0  0
   -1.3815    0.9457   -0.2330 C   0  0  0  0  0  0  0  0  0  0  0  0
   -0.2957    1.2339   -1.0957 O   0  0  0  0  0  0  0  0  0  0  0  0
   -1.5838   -0.5226   -0.5202 C   0  0  0  0  0  0  0  0  0  0  0  0
   -1.0622   -1.5661    0.3926 C   0  0  0  0  0  0  0  0  0  0  0  0
   -0.0598   -0.9113   -0.4739 C   0  0  0  0  0  0  0  0  0  0  0  0
    2.3775   -1.1277    0.5093 H   0  0  0  0  0  0  0  0  0  0  0  0
    2.2586    1.6788    0.0034 H   0  0  0  0  0  0  0  0  0  0  0  0
    2.3215    0.3218   -1.1728 H   0  0  0  0  0  0  0  0  0  0  0  0
   -0.5657    0.4723    1.7875 H   0  0  0  0  0  0  0  0  0  0  0  0
   -0.1272    2.1149    1.0513 H   0  0  0  0  0  0  0  0  0  0  0  0
   -2.2180    1.6088   -0.2581 H   0  0  0  0  0  0  0  0  0  0  0  0
   -2.0755   -0.7657   -1.4594 H   0  0  0  0  0  0  0  0  0  0  0  0
   -1.3286   -2.6120    0.0619 H   0  0  0  0  0  0  0  0  0  0  0  0
   -1.0762   -1.4755    1.4836 H   0  0  0  0  0  0  0  0  0  0  0  0
    0.3418   -1.3926   -1.3640 H   0  0  0  0  0  0  0  0  0  0  0  0
  1  2  1  0
  2  3  1  0
  3  4  1  0
  4  5  1  0
  5  6  1  0
  5  7  1  0
  7  8  1  0
  8  9  1  0
  6  3  1  0
  9  7  1  0
  9  3  1  0
  1 10  1  0
  2 11  1  0
  2 12  1  0
  4 13  1  0
  4 14  1  0
  5 15  1  0
  7 16  1  0
  8 17  1  0
  8 18  1  0
  9 19  1  0
M  END
