
     RDKit          3D

 21 21  0  0  0  0  0  0  0  0999 V2000
    2.9874   -0.1402   -0.2656 O   0  0  0  0  0  0  0  0  0  0  0  0
    2.0284    0.6198    0.3783 C   0  0  0  0  0  0  0  0  0  0  0  0
    0.6716    0.5141   -0.2480 C   0  0  0  0  0  0  0  0  0  0  0  0
   -0.3375    1.3499    0.4768 C   0  0  0  0  0  0  0  0  0  0  0  0
   -1.6398    0.8737   -0.1597 C   0  0  0  0  0  0  0  0  0  0  0  0
   -1.4191   -0.5856   -0.4275 C   0  0  0  0  0  0  0  0  0  0  0  0
   -2.1687   -1.3258    0.4712 O   0  0  0  0  0  0  0  0  0  0  0  0
    0.0768   -0.8385   -0.2525 C   0  0  0  0  0  0  0  0  0  0  0  0
    0.2375   -1.5618    0.9005 O   0  0  0  0  0  0  0  0  0  0  0  0
    2.8821   -1.0869   -0.0348 H   0  0  0  0  0  0  0  0  0  0  0  0
    2.3530    1.6946    0.2433 H   0  0  0  0  0  0  0  0  0  0  0  0
    2.0141    0.4709    1.4779 H   0  0  0  0  0  0  0  0  0  0  0  0
    0.7355    0.8816   -1.2918 H   0  0  0  0  0  0  0  0  0  0  0  0
   -0.3442    1.1695    1.5708 H   0  0  0  0  0  0  0  0  0  0  0  0
   -0.1296    2.4168    0.2239 H   0  0  0  0  0  0  0  0  0  0  0  0
   -2.5035    1.0840    0.4970 H   0  0  0  0  0  0  0  0  0  0  0  0
   -1.7060    1.3969   -1.1370 H   0  0  0  0  0  0  0  0  0  0  0  0
   -1.6973   -0.8317   -1.4814 H   0  0  0  0  0  0  0  0  0  0  0  0
   -2.4155   -2.2071    0.0627 H   0  0  0  0  0  0  0  0  0  0  0  0
    0.4643   -1.4007   -1.1335 H   0  0  0  0  0  0  0  0  0  0  0  0
   -0.0894   -2.4932    0.7090 H   0  0  0  0  0  0  0  0  0  0  0  0
  1  2  1  0
  2  3  1  0
  3  4  1  0
  4  5  1  0
  5  6  1  0
  6  7  1  0
  6  8  1  0
  8  9  1  0
  8  3  1  0
  1 10  1  0
  2 11  1  0
  2 12  1  0
  3 13  1  0
  4 14  1  0
  4 15  1  0
  5 16  1  0
  5 17  1  0
  6 18  1  0
  7 19  1  0
  8 20  1  0
  9 21  1  0
M  END
