
     RDKit          3D

 19 20  0  0  0  0  0  0  0  0999 V2000
   -1.8470   -1.2598   -1.1500 O   0  0  0  0  0  0  0  0  0  0  0  0
   -1.8079   -0.4350   -0.0162 C   0  0  0  0  0  0  0  0  0  0  0  0
   -0.5088    0.3811   -0.0413 C   0  0  0  0  0  0  0  0  0  0  0  0
    0.6984   -0.4059    0.4189 C   0  0  0  0  0  0  0  0  0  0  0  0
    0.5071   -1.2303    1.5278 O   0  0  0  0  0  0  0  0  0  0  0  0
    1.7680   -0.7916   -0.5140 C   0  0  0  0  0  0  0  0  0  0  0  0
    2.0095    0.4112    0.3976 C   0  0  0  0  0  0  0  0  0  0  0  0
   -0.6203    1.8165    0.0980 C   0  0  0  0  0  0  0  0  0  0  0  0
   -0.3432    1.2100   -1.1447 O   0  0  0  0  0  0  0  0  0  0  0  0
   -2.5566   -0.8669   -1.7321 H   0  0  0  0  0  0  0  0  0  0  0  0
   -2.6853    0.2291    0.0550 H   0  0  0  0  0  0  0  0  0  0  0  0
   -1.8258   -1.1056    0.8651 H   0  0  0  0  0  0  0  0  0  0  0  0
    0.0939   -2.0616    1.2397 H   0  0  0  0  0  0  0  0  0  0  0  0
    2.3512   -1.7180   -0.3020 H   0  0  0  0  0  0  0  0  0  0  0  0
    1.6051   -0.6180   -1.5827 H   0  0  0  0  0  0  0  0  0  0  0  0
    1.9785    1.4100   -0.0692 H   0  0  0  0  0  0  0  0  0  0  0  0
    2.6419    0.2941    1.2838 H   0  0  0  0  0  0  0  0  0  0  0  0
   -1.6255    2.2746    0.1376 H   0  0  0  0  0  0  0  0  0  0  0  0
    0.1667    2.4659    0.5285 H   0  0  0  0  0  0  0  0  0  0  0  0
  1  2  1  0
  2  3  1  0
  3  4  1  0
  4  5  1  0
  4  6  1  0
  6  7  1  0
  3  8  1  0
  8  9  1  0
  9  3  1  0
  7  4  1  0
  1 10  1  0
  2 11  1  0
  2 12  1  0
  5 13  1  0
  6 14  1  0
  6 15  1  0
  7 16  1  0
  7 17  1  0
  8 18  1  0
  8 19  1  0
M  END
