
     RDKit          3D

 17 19  0  0  0  0  0  0  0  0999 V2000
   -2.4664    0.9036   -0.2843 O   0  0  0  0  0  0  0  0  0  0  0  0
   -1.6206   -0.1206   -0.6443 C   0  0  0  0  0  0  0  0  0  0  0  0
   -0.3043   -0.0693   -0.0360 C   0  0  0  0  0  0  0  0  0  0  0  0
    0.7920   -1.0422   -0.2508 C   0  0  0  0  0  0  0  0  0  0  0  0
    1.9565   -0.0731   -0.5106 C   0  0  0  0  0  0  0  0  0  0  0  0
    1.7299    1.0078    0.2960 O   0  0  0  0  0  0  0  0  0  0  0  0
    0.3635    1.0638    0.5956 C   0  0  0  0  0  0  0  0  0  0  0  0
   -0.0155   -0.2296    1.3834 C   0  0  0  0  0  0  0  0  0  0  0  0
    0.6893   -1.3743    1.1186 O   0  0  0  0  0  0  0  0  0  0  0  0
   -2.0237    1.5366    0.3669 H   0  0  0  0  0  0  0  0  0  0  0  0
   -2.0991   -1.1200   -0.4234 H   0  0  0  0  0  0  0  0  0  0  0  0
   -1.5289   -0.1142   -1.7686 H   0  0  0  0  0  0  0  0  0  0  0  0
    0.6797   -1.8481   -0.9553 H   0  0  0  0  0  0  0  0  0  0  0  0
    1.8376    0.2353   -1.5682 H   0  0  0  0  0  0  0  0  0  0  0  0
    2.9258   -0.5699   -0.3451 H   0  0  0  0  0  0  0  0  0  0  0  0
   -0.0912    1.9815    0.9290 H   0  0  0  0  0  0  0  0  0  0  0  0
   -0.8245   -0.1673    2.0970 H   0  0  0  0  0  0  0  0  0  0  0  0
  1  2  1  0
  2  3  1  0
  3  4  1  0
  4  5  1  0
  5  6  1  0
  6  7  1  0
  7  8  1  0
  8  9  1  0
  7  3  1  0
  8  3  1  0
  9  4  1  0
  1 10  1  0
  2 11  1  0
  2 12  1  0
  4 13  1  0
  5 14  1  0
  5 15  1  0
  7 16  1  0
  8 17  1  0
M  END
