
     RDKit          3D

 19 20  0  0  0  0  0  0  0  0999 V2000
    2.9747   -0.3829   -0.1059 O   0  0  0  0  0  0  0  0  0  0  0  0
    2.1054    0.5892    0.3869 C   0  0  0  0  0  0  0  0  0  0  0  0
    0.6839    0.1673    0.2947 C   0  0  0  0  0  0  0  0  0  0  0  0
   -0.2462   -0.0002    1.2381 C   0  0  0  0  0  0  0  0  0  0  0  0
   -1.4488   -0.3817    0.4604 C   0  0  0  0  0  0  0  0  0  0  0  0
   -0.8645   -1.4059   -0.5110 C   0  0  0  0  0  0  0  0  0  0  0  0
   -0.0486   -0.1792   -0.9472 C   0  0  0  0  0  0  0  0  0  0  0  0
   -1.3396    0.5862   -0.7278 C   0  0  0  0  0  0  0  0  0  0  0  0
   -1.1508    1.8796   -0.2587 O   0  0  0  0  0  0  0  0  0  0  0  0
    2.5428   -1.2634   -0.1052 H   0  0  0  0  0  0  0  0  0  0  0  0
    2.3904    0.8877    1.4131 H   0  0  0  0  0  0  0  0  0  0  0  0
    2.2947    1.5030   -0.2508 H   0  0  0  0  0  0  0  0  0  0  0  0
   -0.1687    0.1090    2.3134 H   0  0  0  0  0  0  0  0  0  0  0  0
   -2.3769   -0.5473    0.9043 H   0  0  0  0  0  0  0  0  0  0  0  0
   -0.2899   -2.1860   -0.0158 H   0  0  0  0  0  0  0  0  0  0  0  0
   -1.6216   -1.7129   -1.2458 H   0  0  0  0  0  0  0  0  0  0  0  0
    0.4172   -0.1849   -1.8801 H   0  0  0  0  0  0  0  0  0  0  0  0
   -2.1109    0.4486   -1.4878 H   0  0  0  0  0  0  0  0  0  0  0  0
   -1.7424    2.0738    0.5251 H   0  0  0  0  0  0  0  0  0  0  0  0
  1  2  1  0
  2  3  1  0
  3  4  2  0
  4  5  1  0
  5  6  1  0
  6  7  1  0
  7  8  1  0
  8  9  1  0
  7  3  1  0
  8  5  1  0
  1 10  1  0
  2 11  1  0
  2 12  1  0
  4 13  1  0
  5 14  1  0
  6 15  1  0
  6 16  1  0
  7 17  1  0
  8 18  1  0
  9 19  1  0
M  END
