
     RDKit          3D

 21 22  0  0  0  0  0  0  0  0999 V2000
    2.1522    1.5119    1.0469 O   0  0  0  0  0  0  0  0  0  0  0  0
    1.7006    0.7145    0.0417 C   0  0  0  0  0  0  0  0  0  0  0  0
    0.8795   -0.4530    0.4481 C   0  0  0  0  0  0  0  0  0  0  0  0
    0.4371   -1.2632   -0.7584 C   0  0  0  0  0  0  0  0  0  0  0  0
   -1.0551   -1.2562   -0.5510 C   0  0  0  0  0  0  0  0  0  0  0  0
   -1.5500    0.1647   -0.8453 C   0  0  0  0  0  0  0  0  0  0  0  0
   -1.3009    0.8056    0.4795 C   0  0  0  0  0  0  0  0  0  0  0  0
   -0.3960   -0.1498    1.1516 C   0  0  0  0  0  0  0  0  0  0  0  0
   -1.1073   -1.3495    0.8601 O   0  0  0  0  0  0  0  0  0  0  0  0
    2.3814    2.4115    0.7378 H   0  0  0  0  0  0  0  0  0  0  0  0
    2.5722    0.3764   -0.5566 H   0  0  0  0  0  0  0  0  0  0  0  0
    1.0876    1.3411   -0.6541 H   0  0  0  0  0  0  0  0  0  0  0  0
    1.4753   -1.1317    1.0923 H   0  0  0  0  0  0  0  0  0  0  0  0
    0.7945   -2.3140   -0.7067 H   0  0  0  0  0  0  0  0  0  0  0  0
    0.7140   -0.7658   -1.7095 H   0  0  0  0  0  0  0  0  0  0  0  0
   -1.6038   -2.0220   -1.0592 H   0  0  0  0  0  0  0  0  0  0  0  0
   -2.6416    0.1509   -1.0830 H   0  0  0  0  0  0  0  0  0  0  0  0
   -0.9651    0.6356   -1.6606 H   0  0  0  0  0  0  0  0  0  0  0  0
   -0.9835    1.8469    0.4446 H   0  0  0  0  0  0  0  0  0  0  0  0
   -2.2765    0.7958    1.0419 H   0  0  0  0  0  0  0  0  0  0  0  0
   -0.3147   -0.0495    2.2398 H   0  0  0  0  0  0  0  0  0  0  0  0
  1  2  1  0
  2  3  1  0
  3  4  1  0
  4  5  1  0
  5  6  1  0
  6  7  1  0
  7  8  1  0
  8  9  1  0
  8  3  1  0
  9  5  1  0
  1 10  1  0
  2 11  1  0
  2 12  1  0
  3 13  1  0
  4 14  1  0
  4 15  1  0
  5 16  1  0
  6 17  1  0
  6 18  1  0
  7 19  1  0
  7 20  1  0
  8 21  1  0
M  END
