
     RDKit          3D

 21 23  0  0  0  0  0  0  0  0999 V2000
    1.5108   -1.2769    1.2726 O   0  0  0  0  0  0  0  0  0  0  0  0
    1.7331   -0.0695    0.5750 C   0  0  0  0  0  0  0  0  0  0  0  0
    0.5825    0.3928   -0.0122 C   0  0  0  0  0  0  0  0  0  0  0  0
    0.4171    1.6384   -0.8337 C   0  0  0  0  0  0  0  0  0  0  0  0
   -0.9412    0.9847   -0.8705 C   0  0  0  0  0  0  0  0  0  0  0  0
   -0.2015   -0.2956   -1.0986 C   0  0  0  0  0  0  0  0  0  0  0  0
   -1.0602   -1.3355   -0.4646 C   0  0  0  0  0  0  0  0  0  0  0  0
   -1.3952   -0.6359    0.8644 C   0  0  0  0  0  0  0  0  0  0  0  0
   -0.7258    0.6922    0.5920 C   0  0  0  0  0  0  0  0  0  0  0  0
    2.3398   -1.5762    1.7270 H   0  0  0  0  0  0  0  0  0  0  0  0
    2.5260   -0.3377   -0.1777 H   0  0  0  0  0  0  0  0  0  0  0  0
    2.1938    0.6110    1.2897 H   0  0  0  0  0  0  0  0  0  0  0  0
    0.4806    2.5929   -0.2991 H   0  0  0  0  0  0  0  0  0  0  0  0
    0.9431    1.6029   -1.8134 H   0  0  0  0  0  0  0  0  0  0  0  0
   -1.7699    1.3202   -1.3121 H   0  0  0  0  0  0  0  0  0  0  0  0
    0.2677   -0.4790   -2.0412 H   0  0  0  0  0  0  0  0  0  0  0  0
   -2.0129   -1.3914   -1.0529 H   0  0  0  0  0  0  0  0  0  0  0  0
   -0.5910   -2.3021   -0.3044 H   0  0  0  0  0  0  0  0  0  0  0  0
   -2.4798   -0.4385    0.9482 H   0  0  0  0  0  0  0  0  0  0  0  0
   -0.9643   -1.1810    1.7104 H   0  0  0  0  0  0  0  0  0  0  0  0
   -0.8525    1.4840    1.3010 H   0  0  0  0  0  0  0  0  0  0  0  0
  1  2  1  0
  2  3  1  0
  3  4  1  0
  4  5  1  0
  5  6  1  0
  6  7  1  0
  7  8  1  0
  8  9  1  0
  6  3  1  0
  9  3  1  0
  9  5  1  0
  1 10  1  0
  2 11  1  0
  2 12  1  0
  4 13  1  0
  4 14  1  0
  5 15  1  0
  6 16  1  0
  7 17  1  0
  7 18  1  0
  8 19  1  0
  8 20  1  0
  9 21  1  0
M  END
