
     RDKit          3D

 19 20  0  0  0  0  0  0  0  0999 V2000
    2.5479   -0.2825    1.0179 O   0  0  0  0  0  0  0  0  0  0  0  0
    1.8897   -0.7659   -0.1356 C   0  0  0  0  0  0  0  0  0  0  0  0
    0.7619    0.1642   -0.4388 C   0  0  0  0  0  0  0  0  0  0  0  0
   -0.2618    0.2822    0.6681 C   0  0  0  0  0  0  0  0  0  0  0  0
   -0.1738   -0.5690    1.7601 O   0  0  0  0  0  0  0  0  0  0  0  0
   -1.3762    1.2685    0.5656 C   0  0  0  0  0  0  0  0  0  0  0  0
   -1.6531    0.7961   -0.8368 C   0  0  0  0  0  0  0  0  0  0  0  0
   -0.6102   -0.2700   -0.6604 C   0  0  0  0  0  0  0  0  0  0  0  0
   -0.9996   -1.5732   -0.8397 O   0  0  0  0  0  0  0  0  0  0  0  0
    2.8659    0.6389    0.7625 H   0  0  0  0  0  0  0  0  0  0  0  0
    2.6380   -0.8359   -0.9450 H   0  0  0  0  0  0  0  0  0  0  0  0
    1.5496   -1.7935    0.1217 H   0  0  0  0  0  0  0  0  0  0  0  0
    1.0763    1.0997   -0.9736 H   0  0  0  0  0  0  0  0  0  0  0  0
   -0.8085   -1.3357    1.7052 H   0  0  0  0  0  0  0  0  0  0  0  0
   -1.0011    2.3097    0.6546 H   0  0  0  0  0  0  0  0  0  0  0  0
   -2.1746    1.0254    1.3019 H   0  0  0  0  0  0  0  0  0  0  0  0
   -1.3151    1.5929   -1.5563 H   0  0  0  0  0  0  0  0  0  0  0  0
   -2.6743    0.4134   -1.0263 H   0  0  0  0  0  0  0  0  0  0  0  0
   -0.2812   -2.1653   -1.1451 H   0  0  0  0  0  0  0  0  0  0  0  0
  1  2  1  0
  2  3  1  0
  3  4  1  0
  4  5  1  0
  4  6  1  0
  6  7  1  0
  7  8  1  0
  8  9  1  0
  8  3  1  0
  8  4  1  0
  1 10  1  0
  2 11  1  0
  2 12  1  0
  3 13  1  0
  5 14  1  0
  6 15  1  0
  6 16  1  0
  7 17  1  0
  7 18  1  0
  9 19  1  0
M  END
