
     RDKit          3D

 21 22  0  0  0  0  0  0  0  0999 V2000
    1.8435    1.6861    0.0700 O   0  0  0  0  0  0  0  0  0  0  0  0
    1.3977    0.4174    0.5445 C   0  0  0  0  0  0  0  0  0  0  0  0
    0.6064   -0.1469   -0.6088 C   0  0  0  0  0  0  0  0  0  0  0  0
   -0.5467    0.7311   -0.9488 C   0  0  0  0  0  0  0  0  0  0  0  0
   -1.4092    0.4368    0.2999 C   0  0  0  0  0  0  0  0  0  0  0  0
   -1.3461    1.4353    1.2255 O   0  0  0  0  0  0  0  0  0  0  0  0
   -0.9051   -0.9086    0.7994 C   0  0  0  0  0  0  0  0  0  0  0  0
   -0.2629   -1.4238   -0.4047 C   0  0  0  0  0  0  0  0  0  0  0  0
    1.0046   -1.4349   -1.0139 C   0  0  0  0  0  0  0  0  0  0  0  0
    2.7376    1.8971    0.4171 H   0  0  0  0  0  0  0  0  0  0  0  0
    2.3478   -0.1389    0.7397 H   0  0  0  0  0  0  0  0  0  0  0  0
    0.8407    0.6514    1.4447 H   0  0  0  0  0  0  0  0  0  0  0  0
   -1.0768    0.4657   -1.8624 H   0  0  0  0  0  0  0  0  0  0  0  0
   -0.2600    1.7852   -0.8665 H   0  0  0  0  0  0  0  0  0  0  0  0
   -2.4498    0.2593   -0.0855 H   0  0  0  0  0  0  0  0  0  0  0  0
   -2.2337    1.8932    1.2588 H   0  0  0  0  0  0  0  0  0  0  0  0
   -1.7904   -1.5775    1.0428 H   0  0  0  0  0  0  0  0  0  0  0  0
   -0.3455   -0.8715    1.7338 H   0  0  0  0  0  0  0  0  0  0  0  0
   -1.1024   -1.5733   -1.1728 H   0  0  0  0  0  0  0  0  0  0  0  0
    1.8283   -1.9742   -0.4944 H   0  0  0  0  0  0  0  0  0  0  0  0
    1.1219   -1.6089   -2.1185 H   0  0  0  0  0  0  0  0  0  0  0  0
  1  2  1  0
  2  3  1  0
  3  4  1  0
  4  5  1  0
  5  6  1  0
  5  7  1  0
  7  8  1  0
  8  9  1  0
  8  3  1  0
  9  3  1  0
  1 10  1  0
  2 11  1  0
  2 12  1  0
  4 13  1  0
  4 14  1  0
  5 15  1  0
  6 16  1  0
  7 17  1  0
  7 18  1  0
  8 19  1  0
  9 20  1  0
  9 21  1  0
M  END
