
     RDKit          3D

 21 22  0  0  0  0  0  0  0  0999 V2000
   -0.6726    1.9339   -1.4920 O   0  0  0  0  0  0  0  0  0  0  0  0
    0.1161    0.7644   -1.4036 C   0  0  0  0  0  0  0  0  0  0  0  0
    0.0482    0.3416    0.0247 C   0  0  0  0  0  0  0  0  0  0  0  0
   -1.3789    0.0631    0.4230 C   0  0  0  0  0  0  0  0  0  0  0  0
   -1.5309   -1.3802   -0.0534 C   0  0  0  0  0  0  0  0  0  0  0  0
   -0.1747   -1.9254    0.2703 C   0  0  0  0  0  0  0  0  0  0  0  0
    0.7492   -0.9842    0.3271 C   0  0  0  0  0  0  0  0  0  0  0  0
    1.9731   -0.1414    0.4594 C   0  0  0  0  0  0  0  0  0  0  0  0
    0.9904    0.9299    0.9958 C   0  0  0  0  0  0  0  0  0  0  0  0
   -0.4839    2.4747   -0.6640 H   0  0  0  0  0  0  0  0  0  0  0  0
    1.1087    1.0165   -1.7740 H   0  0  0  0  0  0  0  0  0  0  0  0
   -0.3674   -0.0223   -2.0459 H   0  0  0  0  0  0  0  0  0  0  0  0
   -2.0848    0.7541   -0.0446 H   0  0  0  0  0  0  0  0  0  0  0  0
   -1.4469    0.1568    1.5158 H   0  0  0  0  0  0  0  0  0  0  0  0
   -2.3209   -1.8224    0.5816 H   0  0  0  0  0  0  0  0  0  0  0  0
   -1.7011   -1.4516   -1.1220 H   0  0  0  0  0  0  0  0  0  0  0  0
    0.0169   -2.9735    0.4370 H   0  0  0  0  0  0  0  0  0  0  0  0
    2.6898   -0.4805    1.2348 H   0  0  0  0  0  0  0  0  0  0  0  0
    2.3843    0.1004   -0.5173 H   0  0  0  0  0  0  0  0  0  0  0  0
    0.7321    0.6871    2.0284 H   0  0  0  0  0  0  0  0  0  0  0  0
    1.3534    1.9590    0.8188 H   0  0  0  0  0  0  0  0  0  0  0  0
  1  2  1  0
  2  3  1  0
  3  4  1  0
  4  5  1  0
  5  6  1  0
  6  7  2  0
  7  8  1  0
  8  9  1  0
  7  3  1  0
  9  3  1  0
  1 10  1  0
  2 11  1  0
  2 12  1  0
  4 13  1  0
  4 14  1  0
  5 15  1  0
  5 16  1  0
  6 17  1  0
  8 18  1  0
  8 19  1  0
  9 20  1  0
  9 21  1  0
M  END
