
     RDKit          3D

 21 21  0  0  0  0  0  0  0  0999 V2000
   -2.8131   -0.7023    0.9046 O   0  0  0  0  0  0  0  0  0  0  0  0
   -1.8342   -0.8198   -0.0934 C   0  0  0  0  0  0  0  0  0  0  0  0
   -0.5977   -0.1127    0.4223 C   0  0  0  0  0  0  0  0  0  0  0  0
   -0.9445    1.3001    0.6724 C   0  0  0  0  0  0  0  0  0  0  0  0
   -0.0415    2.1092    0.1615 C   0  0  0  0  0  0  0  0  0  0  0  0
    1.0329    1.3281   -0.5008 C   0  0  0  0  0  0  0  0  0  0  0  0
    0.4796   -0.0458   -0.6309 C   0  0  0  0  0  0  0  0  0  0  0  0
    1.5210   -1.1236   -0.4440 C   0  0  0  0  0  0  0  0  0  0  0  0
    2.1665   -1.0516    0.7676 O   0  0  0  0  0  0  0  0  0  0  0  0
   -2.6345   -1.4548    1.5373 H   0  0  0  0  0  0  0  0  0  0  0  0
   -2.2211   -0.3405   -0.9911 H   0  0  0  0  0  0  0  0  0  0  0  0
   -1.6192   -1.8974   -0.2692 H   0  0  0  0  0  0  0  0  0  0  0  0
   -0.2185   -0.5898    1.3310 H   0  0  0  0  0  0  0  0  0  0  0  0
   -1.8562    1.6005    1.2231 H   0  0  0  0  0  0  0  0  0  0  0  0
   -0.0765    3.2178    0.2169 H   0  0  0  0  0  0  0  0  0  0  0  0
    1.9421    1.3964    0.1429 H   0  0  0  0  0  0  0  0  0  0  0  0
    1.2679    1.7897   -1.5024 H   0  0  0  0  0  0  0  0  0  0  0  0
    0.0673   -0.1637   -1.6567 H   0  0  0  0  0  0  0  0  0  0  0  0
    1.0292   -2.1036   -0.5675 H   0  0  0  0  0  0  0  0  0  0  0  0
    2.2226   -1.0286   -1.3157 H   0  0  0  0  0  0  0  0  0  0  0  0
    3.1280   -1.3075    0.5922 H   0  0  0  0  0  0  0  0  0  0  0  0
  1  2  1  0
  2  3  1  0
  3  4  1  0
  4  5  2  0
  5  6  1  0
  6  7  1  0
  7  8  1  0
  8  9  1  0
  7  3  1  0
  1 10  1  0
  2 11  1  0
  2 12  1  0
  3 13  1  0
  4 14  1  0
  5 15  1  0
  6 16  1  0
  6 17  1  0
  7 18  1  0
  8 19  1  0
  8 20  1  0
  9 21  1  0
M  END
