
     RDKit          3D

 21 22  0  0  0  0  0  0  0  0999 V2000
    2.9821   -0.3967   -0.4071 O   0  0  0  0  0  0  0  0  0  0  0  0
    1.6615   -0.8094   -0.3559 C   0  0  0  0  0  0  0  0  0  0  0  0
    0.8423    0.0696    0.5745 C   0  0  0  0  0  0  0  0  0  0  0  0
    0.8708    1.5172    0.0887 C   0  0  0  0  0  0  0  0  0  0  0  0
   -0.3895    1.1591   -0.7146 C   0  0  0  0  0  0  0  0  0  0  0  0
   -0.5895    0.0734    0.2955 C   0  0  0  0  0  0  0  0  0  0  0  0
   -1.3145   -1.1358   -0.0954 C   0  0  0  0  0  0  0  0  0  0  0  0
   -2.4530   -0.3027    0.4976 C   0  0  0  0  0  0  0  0  0  0  0  0
   -1.4906    0.3094    1.3028 O   0  0  0  0  0  0  0  0  0  0  0  0
    3.4891   -0.6371    0.4220 H   0  0  0  0  0  0  0  0  0  0  0  0
    1.5560   -1.8770   -0.0749 H   0  0  0  0  0  0  0  0  0  0  0  0
    1.2655   -0.7163   -1.4059 H   0  0  0  0  0  0  0  0  0  0  0  0
    1.1962   -0.0306    1.6076 H   0  0  0  0  0  0  0  0  0  0  0  0
    0.5857    2.1734    0.9149 H   0  0  0  0  0  0  0  0  0  0  0  0
    1.7340    1.7845   -0.5140 H   0  0  0  0  0  0  0  0  0  0  0  0
   -1.1800    1.9089   -0.6565 H   0  0  0  0  0  0  0  0  0  0  0  0
   -0.1667    0.7384   -1.7210 H   0  0  0  0  0  0  0  0  0  0  0  0
   -1.4367   -1.3918   -1.1510 H   0  0  0  0  0  0  0  0  0  0  0  0
   -1.1239   -1.9860    0.5958 H   0  0  0  0  0  0  0  0  0  0  0  0
   -2.8252    0.4368   -0.2374 H   0  0  0  0  0  0  0  0  0  0  0  0
   -3.2137   -0.8873    1.0340 H   0  0  0  0  0  0  0  0  0  0  0  0
  1  2  1  0
  2  3  1  0
  3  4  1  0
  4  5  1  0
  5  6  1  0
  6  7  1  0
  7  8  1  0
  8  9  1  0
  6  3  1  0
  9  6  1  0
  1 10  1  0
  2 11  1  0
  2 12  1  0
  3 13  1  0
  4 14  1  0
  4 15  1  0
  5 16  1  0
  5 17  1  0
  7 18  1  0
  7 19  1  0
  8 20  1  0
  8 21  1  0
M  END
