
     RDKit          3D

 19 19  0  0  0  0  0  0  0  0999 V2000
   -2.8366   -0.8767    0.4996 O   0  0  0  0  0  0  0  0  0  0  0  0
   -2.2011    0.2760    0.0357 C   0  0  0  0  0  0  0  0  0  0  0  0
   -0.6784    0.0889    0.0418 C   0  0  0  0  0  0  0  0  0  0  0  0
   -0.1516    1.2774   -0.4308 O   0  0  0  0  0  0  0  0  0  0  0  0
    1.0711    1.6083    0.1156 C   0  0  0  0  0  0  0  0  0  0  0  0
    1.9097    0.4281    0.4402 C   0  0  0  0  0  0  0  0  0  0  0  0
    1.7972   -0.8155    0.0504 C   0  0  0  0  0  0  0  0  0  0  0  0
    0.8165   -1.4608   -0.8296 C   0  0  0  0  0  0  0  0  0  0  0  0
   -0.4192   -0.8989   -0.8685 O   0  0  0  0  0  0  0  0  0  0  0  0
   -3.7942   -0.6451    0.5869 H   0  0  0  0  0  0  0  0  0  0  0  0
   -2.5425    0.4335   -1.0228 H   0  0  0  0  0  0  0  0  0  0  0  0
   -2.4141    1.1436    0.6823 H   0  0  0  0  0  0  0  0  0  0  0  0
   -0.4049   -0.1452    1.0733 H   0  0  0  0  0  0  0  0  0  0  0  0
    0.9534    2.1787    1.0829 H   0  0  0  0  0  0  0  0  0  0  0  0
    1.6165    2.2050   -0.6450 H   0  0  0  0  0  0  0  0  0  0  0  0
    2.7344    0.6877    1.1096 H   0  0  0  0  0  0  0  0  0  0  0  0
    2.5884   -1.4599    0.4731 H   0  0  0  0  0  0  0  0  0  0  0  0
    0.7410   -2.5295   -0.5184 H   0  0  0  0  0  0  0  0  0  0  0  0
    1.2143   -1.4955   -1.8762 H   0  0  0  0  0  0  0  0  0  0  0  0
  1  2  1  0
  2  3  1  0
  3  4  1  0
  4  5  1  0
  5  6  1  0
  6  7  2  0
  7  8  1  0
  8  9  1  0
  9  3  1  0
  1 10  1  0
  2 11  1  0
  2 12  1  0
  3 13  1  0
  5 14  1  0
  5 15  1  0
  6 16  1  0
  7 17  1  0
  8 18  1  0
  8 19  1  0
M  END
