
     RDKit          3D

 21 22  0  0  0  0  0  0  0  0999 V2000
   -2.8890   -0.6986    0.5046 O   0  0  0  0  0  0  0  0  0  0  0  0
   -1.9454    0.3163    0.7264 C   0  0  0  0  0  0  0  0  0  0  0  0
   -1.0869    0.4358   -0.5070 C   0  0  0  0  0  0  0  0  0  0  0  0
   -0.3534   -0.8673   -0.8145 C   0  0  0  0  0  0  0  0  0  0  0  0
    0.8670   -0.2675   -0.2538 C   0  0  0  0  0  0  0  0  0  0  0  0
    1.7094   -0.8046    0.7875 C   0  0  0  0  0  0  0  0  0  0  0  0
    2.2288   -0.5517   -0.6474 C   0  0  0  0  0  0  0  0  0  0  0  0
    0.2612    1.0991   -0.1957 C   0  0  0  0  0  0  0  0  0  0  0  0
    0.2967    1.5919    1.1047 O   0  0  0  0  0  0  0  0  0  0  0  0
   -2.9777   -0.9103   -0.4601 H   0  0  0  0  0  0  0  0  0  0  0  0
   -2.3887    1.2694    1.0025 H   0  0  0  0  0  0  0  0  0  0  0  0
   -1.2847   -0.0193    1.5775 H   0  0  0  0  0  0  0  0  0  0  0  0
   -1.5968    0.8966   -1.3627 H   0  0  0  0  0  0  0  0  0  0  0  0
   -0.3789   -1.0331   -1.9250 H   0  0  0  0  0  0  0  0  0  0  0  0
   -0.8286   -1.7066   -0.2910 H   0  0  0  0  0  0  0  0  0  0  0  0
    2.1177   -0.0793    1.5454 H   0  0  0  0  0  0  0  0  0  0  0  0
    1.5957   -1.8378    1.1170 H   0  0  0  0  0  0  0  0  0  0  0  0
    2.9240    0.3073   -0.7810 H   0  0  0  0  0  0  0  0  0  0  0  0
    2.5232   -1.4662   -1.1756 H   0  0  0  0  0  0  0  0  0  0  0  0
    0.6232    1.7727   -0.9732 H   0  0  0  0  0  0  0  0  0  0  0  0
    0.5831    2.5531    1.0216 H   0  0  0  0  0  0  0  0  0  0  0  0
  1  2  1  0
  2  3  1  0
  3  4  1  0
  4  5  1  0
  5  6  1  0
  6  7  1  0
  5  8  1  0
  8  9  1  0
  8  3  1  0
  7  5  1  0
  1 10  1  0
  2 11  1  0
  2 12  1  0
  3 13  1  0
  4 14  1  0
  4 15  1  0
  6 16  1  0
  6 17  1  0
  7 18  1  0
  7 19  1  0
  8 20  1  0
  9 21  1  0
M  END
