
     RDKit          3D

 19 20  0  0  0  0  0  0  0  0999 V2000
   -2.9535    0.7386   -0.1764 O   0  0  0  0  0  0  0  0  0  0  0  0
   -2.2821   -0.4575    0.1644 C   0  0  0  0  0  0  0  0  0  0  0  0
   -0.8171   -0.1082    0.2886 C   0  0  0  0  0  0  0  0  0  0  0  0
   -0.0338   -1.1873    0.6200 O   0  0  0  0  0  0  0  0  0  0  0  0
    1.0359   -1.3901   -0.2260 C   0  0  0  0  0  0  0  0  0  0  0  0
    1.8839   -0.1562   -0.3457 C   0  0  0  0  0  0  0  0  0  0  0  0
    1.6468    1.0248    0.5303 C   0  0  0  0  0  0  0  0  0  0  0  0
    0.9141    0.9881   -0.7318 C   0  0  0  0  0  0  0  0  0  0  0  0
   -0.3209    0.4283   -0.8994 O   0  0  0  0  0  0  0  0  0  0  0  0
   -3.1650    1.2673    0.6340 H   0  0  0  0  0  0  0  0  0  0  0  0
   -2.5000   -1.1955   -0.6079 H   0  0  0  0  0  0  0  0  0  0  0  0
   -2.6518   -0.7302    1.1756 H   0  0  0  0  0  0  0  0  0  0  0  0
   -0.7759    0.7174    1.0445 H   0  0  0  0  0  0  0  0  0  0  0  0
    1.5973   -2.2648    0.1465 H   0  0  0  0  0  0  0  0  0  0  0  0
    0.6492   -1.6159   -1.2561 H   0  0  0  0  0  0  0  0  0  0  0  0
    2.8166   -0.2429   -0.9157 H   0  0  0  0  0  0  0  0  0  0  0  0
    1.2075    0.7950    1.5145 H   0  0  0  0  0  0  0  0  0  0  0  0
    2.4960    1.7374    0.5962 H   0  0  0  0  0  0  0  0  0  0  0  0
    1.2529    1.6516   -1.5554 H   0  0  0  0  0  0  0  0  0  0  0  0
  1  2  1  0
  2  3  1  0
  3  4  1  0
  4  5  1  0
  5  6  1  0
  6  7  1  0
  7  8  1  0
  8  9  1  0
  9  3  1  0
  8  6  1  0
  1 10  1  0
  2 11  1  0
  2 12  1  0
  3 13  1  0
  5 14  1  0
  5 15  1  0
  6 16  1  0
  7 17  1  0
  7 18  1  0
  8 19  1  0
M  END
