
     RDKit          3D

 19 21  0  0  0  0  0  0  0  0999 V2000
    3.1681   -0.5133    0.3020 O   0  0  0  0  0  0  0  0  0  0  0  0
    2.2298    0.3391    0.8692 C   0  0  0  0  0  0  0  0  0  0  0  0
    1.2637    0.7596   -0.2444 C   0  0  0  0  0  0  0  0  0  0  0  0
    0.2253    1.6342    0.1280 O   0  0  0  0  0  0  0  0  0  0  0  0
    0.0107    0.2335   -0.3203 C   0  0  0  0  0  0  0  0  0  0  0  0
   -0.9513    0.0706   -1.4425 C   0  0  0  0  0  0  0  0  0  0  0  0
   -1.8357   -0.7410   -0.5219 C   0  0  0  0  0  0  0  0  0  0  0  0
   -2.2671   -0.0684    0.7334 C   0  0  0  0  0  0  0  0  0  0  0  0
   -0.8298   -0.4931    0.6497 C   0  0  0  0  0  0  0  0  0  0  0  0
    2.6975   -1.0084   -0.4324 H   0  0  0  0  0  0  0  0  0  0  0  0
    2.6689    1.2065    1.3815 H   0  0  0  0  0  0  0  0  0  0  0  0
    1.6790   -0.2740    1.6363 H   0  0  0  0  0  0  0  0  0  0  0  0
    1.8139    1.1070   -1.1427 H   0  0  0  0  0  0  0  0  0  0  0  0
   -1.4652    0.9851   -1.8017 H   0  0  0  0  0  0  0  0  0  0  0  0
   -0.4889   -0.5244   -2.2743 H   0  0  0  0  0  0  0  0  0  0  0  0
   -2.0831   -1.7746   -0.7451 H   0  0  0  0  0  0  0  0  0  0  0  0
   -2.9205   -0.5509    1.4548 H   0  0  0  0  0  0  0  0  0  0  0  0
   -2.4186    1.0381    0.6330 H   0  0  0  0  0  0  0  0  0  0  0  0
   -0.4965   -1.4254    1.1374 H   0  0  0  0  0  0  0  0  0  0  0  0
  1  2  1  0
  2  3  1  0
  3  4  1  0
  4  5  1  0
  5  6  1  0
  6  7  1  0
  7  8  1  0
  8  9  1  0
  5  3  1  0
  9  7  1  0
  9  5  1  0
  1 10  1  0
  2 11  1  0
  2 12  1  0
  3 13  1  0
  6 14  1  0
  6 15  1  0
  7 16  1  0
  8 17  1  0
  8 18  1  0
  9 19  1  0
M  END
