
     RDKit          3D

 19 20  0  0  0  0  0  0  0  0999 V2000
    1.9004   -0.6936   -1.6707 O   0  0  0  0  0  0  0  0  0  0  0  0
    1.4711    0.4418   -0.9597 C   0  0  0  0  0  0  0  0  0  0  0  0
    0.9140   -0.0435    0.3308 C   0  0  0  0  0  0  0  0  0  0  0  0
   -0.2204   -0.9669    0.4406 C   0  0  0  0  0  0  0  0  0  0  0  0
   -1.1770   -1.2363   -0.6881 C   0  0  0  0  0  0  0  0  0  0  0  0
   -2.2141   -0.3119   -0.4165 O   0  0  0  0  0  0  0  0  0  0  0  0
   -1.4678    0.8728   -0.2650 C   0  0  0  0  0  0  0  0  0  0  0  0
   -0.4132    0.5062    0.7108 C   0  0  0  0  0  0  0  0  0  0  0  0
   -0.5246    0.9494    2.0242 O   0  0  0  0  0  0  0  0  0  0  0  0
    2.6221   -1.0924   -1.1116 H   0  0  0  0  0  0  0  0  0  0  0  0
    0.8062    1.0213   -1.6015 H   0  0  0  0  0  0  0  0  0  0  0  0
    2.4282    1.0021   -0.7387 H   0  0  0  0  0  0  0  0  0  0  0  0
    1.6667   -0.1388    1.1458 H   0  0  0  0  0  0  0  0  0  0  0  0
   -0.3197   -1.5985    1.3235 H   0  0  0  0  0  0  0  0  0  0  0  0
   -0.7141   -1.0401   -1.6644 H   0  0  0  0  0  0  0  0  0  0  0  0
   -1.5921   -2.2512   -0.6889 H   0  0  0  0  0  0  0  0  0  0  0  0
   -1.1576    1.1670   -1.2601 H   0  0  0  0  0  0  0  0  0  0  0  0
   -2.1043    1.6956    0.1263 H   0  0  0  0  0  0  0  0  0  0  0  0
    0.0960    1.7170    2.1126 H   0  0  0  0  0  0  0  0  0  0  0  0
  1  2  1  0
  2  3  1  0
  3  4  1  0
  4  5  1  0
  5  6  1  0
  6  7  1  0
  7  8  1  0
  8  9  1  0
  8  3  1  0
  8  4  1  0
  1 10  1  0
  2 11  1  0
  2 12  1  0
  3 13  1  0
  4 14  1  0
  5 15  1  0
  5 16  1  0
  7 17  1  0
  7 18  1  0
  9 19  1  0
M  END
