
     RDKit          3D

 21 21  0  0  0  0  0  0  0  0999 V2000
    3.0459   -0.6923   -0.6328 O   0  0  0  0  0  0  0  0  0  0  0  0
    2.3496    0.5081   -0.5525 C   0  0  0  0  0  0  0  0  0  0  0  0
    0.9160    0.2500   -0.2068 C   0  0  0  0  0  0  0  0  0  0  0  0
    0.5291   -1.0086   -0.0349 C   0  0  0  0  0  0  0  0  0  0  0  0
   -0.8118   -1.5107    0.3057 C   0  0  0  0  0  0  0  0  0  0  0  0
   -1.9225   -0.6792   -0.2519 C   0  0  0  0  0  0  0  0  0  0  0  0
   -2.0161    0.7012    0.2663 C   0  0  0  0  0  0  0  0  0  0  0  0
   -0.9011    1.2042    0.8804 O   0  0  0  0  0  0  0  0  0  0  0  0
    0.0644    1.4601   -0.0917 C   0  0  0  0  0  0  0  0  0  0  0  0
    3.7957   -0.6922    0.0103 H   0  0  0  0  0  0  0  0  0  0  0  0
    2.7716    1.1220    0.2750 H   0  0  0  0  0  0  0  0  0  0  0  0
    2.3577    1.0404   -1.5271 H   0  0  0  0  0  0  0  0  0  0  0  0
    1.3064   -1.7526   -0.1640 H   0  0  0  0  0  0  0  0  0  0  0  0
   -0.9340   -1.6850    1.4129 H   0  0  0  0  0  0  0  0  0  0  0  0
   -0.9054   -2.5290   -0.1448 H   0  0  0  0  0  0  0  0  0  0  0  0
   -1.8481   -0.7391   -1.3677 H   0  0  0  0  0  0  0  0  0  0  0  0
   -2.8821   -1.2110   -0.0008 H   0  0  0  0  0  0  0  0  0  0  0  0
   -2.8832    0.8542    0.9732 H   0  0  0  0  0  0  0  0  0  0  0  0
   -2.2611    1.3790   -0.6018 H   0  0  0  0  0  0  0  0  0  0  0  0
   -0.4088    1.6062   -1.1018 H   0  0  0  0  0  0  0  0  0  0  0  0
    0.6379    2.3743    0.1107 H   0  0  0  0  0  0  0  0  0  0  0  0
  1  2  1  0
  2  3  1  0
  3  4  2  0
  4  5  1  0
  5  6  1  0
  6  7  1  0
  7  8  1  0
  8  9  1  0
  9  3  1  0
  1 10  1  0
  2 11  1  0
  2 12  1  0
  4 13  1  0
  5 14  1  0
  5 15  1  0
  6 16  1  0
  6 17  1  0
  7 18  1  0
  7 19  1  0
  9 20  1  0
  9 21  1  0
M  END
