
     RDKit          3D

 18 19  0  0  0  0  0  0  0  0999 V2000
   -2.7972    0.1581    1.0412 O   0  0  0  0  0  0  0  0  0  0  0  0
   -2.0627    0.4044   -0.0937 C   0  0  0  0  0  0  0  0  0  0  0  0
   -0.7227   -0.2632    0.0511 C   0  0  0  0  0  0  0  0  0  0  0  0
    0.2372    0.1534   -1.0744 C   0  0  0  0  0  0  0  0  0  0  0  0
    1.5172   -0.4177   -0.5019 C   0  0  0  0  0  0  0  0  0  0  0  0
    2.3685    0.3811    0.3999 C   0  0  0  0  0  0  0  0  0  0  0  0
    1.2438   -0.3330    1.0070 C   0  0  0  0  0  0  0  0  0  0  0  0
   -0.0074    0.2080    1.1502 O   0  0  0  0  0  0  0  0  0  0  0  0
   -3.7056   -0.1309    0.7846 H   0  0  0  0  0  0  0  0  0  0  0  0
   -2.5610   -0.0528   -0.9722 H   0  0  0  0  0  0  0  0  0  0  0  0
   -1.8762    1.4865   -0.2734 H   0  0  0  0  0  0  0  0  0  0  0  0
   -0.7607   -1.3581    0.0276 H   0  0  0  0  0  0  0  0  0  0  0  0
   -0.0492   -0.3255   -2.0306 H   0  0  0  0  0  0  0  0  0  0  0  0
    0.2822    1.2675   -1.1510 H   0  0  0  0  0  0  0  0  0  0  0  0
    1.7520   -1.4240   -0.8390 H   0  0  0  0  0  0  0  0  0  0  0  0
    2.3267    1.4897    0.2630 H   0  0  0  0  0  0  0  0  0  0  0  0
    3.3770   -0.0121    0.5909 H   0  0  0  0  0  0  0  0  0  0  0  0
    1.4380   -1.2314    1.6206 H   0  0  0  0  0  0  0  0  0  0  0  0
  1  2  1  0
  2  3  1  0
  3  4  1  0
  4  5  1  0
  5  6  1  0
  6  7  1  0
  7  8  1  0
  8  3  1  0
  7  5  1  0
  1  9  1  0
  2 10  1  0
  2 11  1  0
  3 12  1  0
  4 13  1  0
  4 14  1  0
  5 15  1  0
  6 16  1  0
  6 17  1  0
  7 18  1  0
M  END
