
     RDKit          3D

 16 17  0  0  0  0  0  0  0  0999 V2000
    2.2514   -0.2679   -0.8710 O   0  0  0  0  0  0  0  0  0  0  0  0
    1.7424    0.4396    0.2198 C   0  0  0  0  0  0  0  0  0  0  0  0
    0.2821    0.2236    0.2843 C   0  0  0  0  0  0  0  0  0  0  0  0
   -0.2651   -1.0416   -0.3162 C   0  0  0  0  0  0  0  0  0  0  0  0
   -1.6252   -0.3367   -0.3566 C   0  0  0  0  0  0  0  0  0  0  0  0
   -2.3790   -0.7727    0.7244 O   0  0  0  0  0  0  0  0  0  0  0  0
   -0.8192    0.9222    0.0042 C   0  0  0  0  0  0  0  0  0  0  0  0
   -0.3720    0.8639    1.3190 O   0  0  0  0  0  0  0  0  0  0  0  0
    3.1824    0.0230   -1.0323 H   0  0  0  0  0  0  0  0  0  0  0  0
    2.0241    1.5175    0.1912 H   0  0  0  0  0  0  0  0  0  0  0  0
    2.1970   -0.0279    1.1403 H   0  0  0  0  0  0  0  0  0  0  0  0
    0.1033   -1.1552   -1.3565 H   0  0  0  0  0  0  0  0  0  0  0  0
   -0.2275   -1.9314    0.3229 H   0  0  0  0  0  0  0  0  0  0  0  0
   -2.1068   -0.3058   -1.3269 H   0  0  0  0  0  0  0  0  0  0  0  0
   -2.9173   -0.0109    1.0974 H   0  0  0  0  0  0  0  0  0  0  0  0
   -1.0708    1.8602   -0.4727 H   0  0  0  0  0  0  0  0  0  0  0  0
  1  2  1  0
  2  3  1  0
  3  4  1  0
  4  5  1  0
  5  6  1  0
  5  7  1  0
  7  8  1  0
  7  3  1  0
  8  3  1  0
  1  9  1  0
  2 10  1  0
  2 11  1  0
  4 12  1  0
  4 13  1  0
  5 14  1  0
  6 15  1  0
  7 16  1  0
M  END
