
     RDKit          3D

 19 19  0  0  0  0  0  0  0  0999 V2000
   -1.1339   -2.1663    0.2613 O   0  0  0  0  0  0  0  0  0  0  0  0
   -0.2954   -1.3714   -0.5013 C   0  0  0  0  0  0  0  0  0  0  0  0
   -0.2984    0.0680   -0.0693 C   0  0  0  0  0  0  0  0  0  0  0  0
   -1.6391    0.7197   -0.1502 C   0  0  0  0  0  0  0  0  0  0  0  0
   -1.4780    2.0457    0.2817 O   0  0  0  0  0  0  0  0  0  0  0  0
    0.5737    0.7698   -0.9001 O   0  0  0  0  0  0  0  0  0  0  0  0
    1.8298    0.3827   -0.5011 C   0  0  0  0  0  0  0  0  0  0  0  0
    1.6509    0.0813    0.9566 C   0  0  0  0  0  0  0  0  0  0  0  0
    0.2777    0.1865    1.1888 O   0  0  0  0  0  0  0  0  0  0  0  0
   -1.9579   -1.7298    0.5332 H   0  0  0  0  0  0  0  0  0  0  0  0
   -0.5563   -1.4342   -1.5752 H   0  0  0  0  0  0  0  0  0  0  0  0
    0.7590   -1.7313   -0.4140 H   0  0  0  0  0  0  0  0  0  0  0  0
   -2.3970    0.2620    0.5060 H   0  0  0  0  0  0  0  0  0  0  0  0
   -1.9502    0.7704   -1.2105 H   0  0  0  0  0  0  0  0  0  0  0  0
   -2.3457    2.4485    0.5192 H   0  0  0  0  0  0  0  0  0  0  0  0
    2.5163    1.2486   -0.6861 H   0  0  0  0  0  0  0  0  0  0  0  0
    2.2331   -0.4770   -1.0785 H   0  0  0  0  0  0  0  0  0  0  0  0
    2.0290   -0.9099    1.2518 H   0  0  0  0  0  0  0  0  0  0  0  0
    2.1824    0.8367    1.5878 H   0  0  0  0  0  0  0  0  0  0  0  0
  1  2  1  0
  2  3  1  0
  3  4  1  0
  4  5  1  0
  3  6  1  0
  6  7  1  0
  7  8  1  0
  8  9  1  0
  9  3  1  0
  1 10  1  0
  2 11  1  0
  2 12  1  0
  4 13  1  0
  4 14  1  0
  5 15  1  0
  7 16  1  0
  7 17  1  0
  8 18  1  0
  8 19  1  0
M  END
