
     RDKit          3D

 19 20  0  0  0  0  0  0  0  0999 V2000
   -1.3357   -1.6323   -0.3120 O   0  0  0  0  0  0  0  0  0  0  0  0
   -1.6046   -0.3779   -0.8793 C   0  0  0  0  0  0  0  0  0  0  0  0
   -0.7686    0.6283   -0.1261 C   0  0  0  0  0  0  0  0  0  0  0  0
    0.5070    0.1943    0.5401 C   0  0  0  0  0  0  0  0  0  0  0  0
    1.5076   -0.3781   -0.4397 C   0  0  0  0  0  0  0  0  0  0  0  0
    2.8026   -0.8223    0.2123 C   0  0  0  0  0  0  0  0  0  0  0  0
    1.8840   -1.7007   -0.3526 O   0  0  0  0  0  0  0  0  0  0  0  0
   -1.5687    1.6399    0.6582 C   0  0  0  0  0  0  0  0  0  0  0  0
   -0.9005    1.9491   -0.5496 O   0  0  0  0  0  0  0  0  0  0  0  0
   -2.2007   -2.0346    0.0091 H   0  0  0  0  0  0  0  0  0  0  0  0
   -1.3092   -0.4405   -1.9525 H   0  0  0  0  0  0  0  0  0  0  0  0
   -2.6774   -0.1214   -0.8473 H   0  0  0  0  0  0  0  0  0  0  0  0
    0.3646   -0.5352    1.3410 H   0  0  0  0  0  0  0  0  0  0  0  0
    0.9742    1.1049    0.9723 H   0  0  0  0  0  0  0  0  0  0  0  0
    1.5633    0.1672   -1.4022 H   0  0  0  0  0  0  0  0  0  0  0  0
    3.7065   -0.5294   -0.3281 H   0  0  0  0  0  0  0  0  0  0  0  0
    2.8659   -0.8706    1.3118 H   0  0  0  0  0  0  0  0  0  0  0  0
   -2.6725    1.6002    0.6301 H   0  0  0  0  0  0  0  0  0  0  0  0
   -1.1378    2.1590    1.5145 H   0  0  0  0  0  0  0  0  0  0  0  0
  1  2  1  0
  2  3  1  0
  3  4  1  0
  4  5  1  0
  5  6  1  0
  6  7  1  0
  3  8  1  0
  8  9  1  0
  9  3  1  0
  7  5  1  0
  1 10  1  0
  2 11  1  0
  2 12  1  0
  4 13  1  0
  4 14  1  0
  5 15  1  0
  6 16  1  0
  6 17  1  0
  8 18  1  0
  8 19  1  0
M  END
