
     RDKit          3D

 21 21  0  0  0  0  0  0  0  0999 V2000
    3.1089    0.7363   -0.2846 O   0  0  0  0  0  0  0  0  0  0  0  0
    2.5156   -0.4370    0.2361 C   0  0  0  0  0  0  0  0  0  0  0  0
    1.0458   -0.2197    0.1999 C   0  0  0  0  0  0  0  0  0  0  0  0
    0.3340   -1.0652   -0.5220 C   0  0  0  0  0  0  0  0  0  0  0  0
   -1.0962   -1.1979   -0.8122 C   0  0  0  0  0  0  0  0  0  0  0  0
   -1.9777   -0.4182    0.1126 C   0  0  0  0  0  0  0  0  0  0  0  0
   -1.7809    1.0773   -0.0256 C   0  0  0  0  0  0  0  0  0  0  0  0
   -0.6922    1.4919    0.9002 C   0  0  0  0  0  0  0  0  0  0  0  0
    0.5016    0.9090    0.9632 C   0  0  0  0  0  0  0  0  0  0  0  0
    2.8573    0.7799   -1.2394 H   0  0  0  0  0  0  0  0  0  0  0  0
    2.7573   -1.2606   -0.4357 H   0  0  0  0  0  0  0  0  0  0  0  0
    2.8572   -0.5792    1.2759 H   0  0  0  0  0  0  0  0  0  0  0  0
    0.9392   -1.8418   -1.0163 H   0  0  0  0  0  0  0  0  0  0  0  0
   -1.4040   -2.2570   -0.7703 H   0  0  0  0  0  0  0  0  0  0  0  0
   -1.3015   -0.8554   -1.8511 H   0  0  0  0  0  0  0  0  0  0  0  0
   -1.8282   -0.7719    1.1535 H   0  0  0  0  0  0  0  0  0  0  0  0
   -3.0360   -0.6307   -0.1904 H   0  0  0  0  0  0  0  0  0  0  0  0
   -1.3845    1.2470   -1.0654 H   0  0  0  0  0  0  0  0  0  0  0  0
   -2.7032    1.6474    0.1263 H   0  0  0  0  0  0  0  0  0  0  0  0
   -0.8969    2.3235    1.5609 H   0  0  0  0  0  0  0  0  0  0  0  0
    1.1842    1.3222    1.6843 H   0  0  0  0  0  0  0  0  0  0  0  0
  1  2  1  0
  2  3  1  0
  3  4  2  0
  4  5  1  0
  5  6  1  0
  6  7  1  0
  7  8  1  0
  8  9  2  0
  9  3  1  0
  1 10  1  0
  2 11  1  0
  2 12  1  0
  4 13  1  0
  5 14  1  0
  5 15  1  0
  6 16  1  0
  6 17  1  0
  7 18  1  0
  7 19  1  0
  8 20  1  0
  9 21  1  0
M  END
