
     RDKit          3D

 17 19  0  0  0  0  0  0  0  0999 V2000
   -2.3552   -1.1777   -0.9588 O   0  0  0  0  0  0  0  0  0  0  0  0
   -2.0878   -0.3093    0.0867 C   0  0  0  0  0  0  0  0  0  0  0  0
   -0.6127   -0.1205    0.2101 C   0  0  0  0  0  0  0  0  0  0  0  0
    0.1570   -0.3961    1.2557 C   0  0  0  0  0  0  0  0  0  0  0  0
    1.5767   -0.0549    0.9632 C   0  0  0  0  0  0  0  0  0  0  0  0
    2.0657   -0.3547   -0.3805 C   0  0  0  0  0  0  0  0  0  0  0  0
    1.1324   -0.5962   -1.3791 O   0  0  0  0  0  0  0  0  0  0  0  0
    0.2672    0.4100   -0.8734 C   0  0  0  0  0  0  0  0  0  0  0  0
    1.4166    0.9369   -0.1135 C   0  0  0  0  0  0  0  0  0  0  0  0
   -3.2785   -0.9994   -1.2891 H   0  0  0  0  0  0  0  0  0  0  0  0
   -2.6198    0.6341   -0.1191 H   0  0  0  0  0  0  0  0  0  0  0  0
   -2.4832   -0.7102    1.0453 H   0  0  0  0  0  0  0  0  0  0  0  0
   -0.2096   -0.8107    2.1853 H   0  0  0  0  0  0  0  0  0  0  0  0
    2.2475    0.1940    1.8079 H   0  0  0  0  0  0  0  0  0  0  0  0
    3.1467   -0.3990   -0.6334 H   0  0  0  0  0  0  0  0  0  0  0  0
   -0.2118    1.0216   -1.6294 H   0  0  0  0  0  0  0  0  0  0  0  0
    1.8486    1.9030   -0.1780 H   0  0  0  0  0  0  0  0  0  0  0  0
  1  2  1  0
  2  3  1  0
  3  4  2  0
  4  5  1  0
  5  6  1  0
  6  7  1  0
  7  8  1  0
  8  9  1  0
  8  3  1  0
  9  5  1  0
  9  6  1  0
  1 10  1  0
  2 11  1  0
  2 12  1  0
  4 13  1  0
  5 14  1  0
  6 15  1  0
  8 16  1  0
  9 17  1  0
M  END
