
     RDKit          3D

 19 21  0  0  0  0  0  0  0  0999 V2000
    3.1168    0.3580    0.2450 O   0  0  0  0  0  0  0  0  0  0  0  0
    2.2733   -0.6114   -0.2450 C   0  0  0  0  0  0  0  0  0  0  0  0
    0.8479   -0.3050    0.0259 C   0  0  0  0  0  0  0  0  0  0  0  0
    0.4406    0.7815    0.6680 C   0  0  0  0  0  0  0  0  0  0  0  0
   -1.0582    0.7618    0.7594 C   0  0  0  0  0  0  0  0  0  0  0  0
   -1.6381    1.0250   -0.6168 C   0  0  0  0  0  0  0  0  0  0  0  0
   -1.5229   -0.4610   -0.8816 C   0  0  0  0  0  0  0  0  0  0  0  0
   -0.3127   -1.1463   -0.3684 C   0  0  0  0  0  0  0  0  0  0  0  0
   -1.3552   -0.6750    0.5677 C   0  0  0  0  0  0  0  0  0  0  0  0
    2.7674    1.2495   -0.0015 H   0  0  0  0  0  0  0  0  0  0  0  0
    2.5819   -1.5801    0.2264 H   0  0  0  0  0  0  0  0  0  0  0  0
    2.4681   -0.7633   -1.3418 H   0  0  0  0  0  0  0  0  0  0  0  0
    1.0350    1.5702    1.0731 H   0  0  0  0  0  0  0  0  0  0  0  0
   -1.4961    1.2998    1.5905 H   0  0  0  0  0  0  0  0  0  0  0  0
   -0.9875    1.6796   -1.1898 H   0  0  0  0  0  0  0  0  0  0  0  0
   -2.7223    1.2929   -0.5861 H   0  0  0  0  0  0  0  0  0  0  0  0
   -2.2761   -0.9657   -1.4891 H   0  0  0  0  0  0  0  0  0  0  0  0
   -0.1946   -2.2256   -0.4547 H   0  0  0  0  0  0  0  0  0  0  0  0
   -1.9674   -1.2848    1.1945 H   0  0  0  0  0  0  0  0  0  0  0  0
  1  2  1  0
  2  3  1  0
  3  4  2  0
  4  5  1  0
  5  6  1  0
  6  7  1  0
  7  8  1  0
  8  9  1  0
  8  3  1  0
  9  5  1  0
  9  7  1  0
  1 10  1  0
  2 11  1  0
  2 12  1  0
  4 13  1  0
  5 14  1  0
  6 15  1  0
  6 16  1  0
  7 17  1  0
  8 18  1  0
  9 19  1  0
M  END
