
     RDKit          3D

 18 18  0  0  0  0  0  0  0  0999 V2000
    2.5016    1.2118    0.5010 O   0  0  0  0  0  0  0  0  0  0  0  0
    1.9684    0.0472   -0.0065 C   0  0  0  0  0  0  0  0  0  0  0  0
    0.5524   -0.1238    0.4846 C   0  0  0  0  0  0  0  0  0  0  0  0
   -0.0695   -1.3610   -0.0311 C   0  0  0  0  0  0  0  0  0  0  0  0
   -1.3678   -1.1452   -0.1466 C   0  0  0  0  0  0  0  0  0  0  0  0
   -1.7234    0.2538    0.2807 C   0  0  0  0  0  0  0  0  0  0  0  0
   -2.6460    0.7757   -0.6111 O   0  0  0  0  0  0  0  0  0  0  0  0
   -0.3693    0.9653    0.0907 C   0  0  0  0  0  0  0  0  0  0  0  0
    3.4077    1.0742    0.9126 H   0  0  0  0  0  0  0  0  0  0  0  0
    2.0259   -0.0098   -1.1275 H   0  0  0  0  0  0  0  0  0  0  0  0
    2.5450   -0.8207    0.3874 H   0  0  0  0  0  0  0  0  0  0  0  0
    0.6059   -0.1800    1.5932 H   0  0  0  0  0  0  0  0  0  0  0  0
    0.4689   -2.2997   -0.2749 H   0  0  0  0  0  0  0  0  0  0  0  0
   -2.0651   -1.8960   -0.5054 H   0  0  0  0  0  0  0  0  0  0  0  0
   -2.0429    0.2892    1.3311 H   0  0  0  0  0  0  0  0  0  0  0  0
   -3.1695    0.0559   -1.0551 H   0  0  0  0  0  0  0  0  0  0  0  0
   -0.3574    1.8460    0.7620 H   0  0  0  0  0  0  0  0  0  0  0  0
   -0.2651    1.3168   -0.9454 H   0  0  0  0  0  0  0  0  0  0  0  0
  1  2  1  0
  2  3  1  0
  3  4  1  0
  4  5  2  0
  5  6  1  0
  6  7  1  0
  6  8  1  0
  8  3  1  0
  1  9  1  0
  2 10  1  0
  2 11  1  0
  3 12  1  0
  4 13  1  0
  5 14  1  0
  6 15  1  0
  7 16  1  0
  8 17  1  0
  8 18  1  0
M  END
