
     RDKit          3D

 21 22  0  0  0  0  0  0  0  0999 V2000
    2.8440    0.5229   -0.9380 O   0  0  0  0  0  0  0  0  0  0  0  0
    2.1464   -0.3903   -0.1435 C   0  0  0  0  0  0  0  0  0  0  0  0
    0.6718   -0.2623   -0.5446 C   0  0  0  0  0  0  0  0  0  0  0  0
   -0.1668   -1.2057    0.2544 C   0  0  0  0  0  0  0  0  0  0  0  0
   -1.6185   -0.9641   -0.0056 C   0  0  0  0  0  0  0  0  0  0  0  0
   -2.0579    0.4353    0.1590 C   0  0  0  0  0  0  0  0  0  0  0  0
   -1.0906    1.4872   -0.2225 C   0  0  0  0  0  0  0  0  0  0  0  0
   -0.5785    1.5793   -1.4971 O   0  0  0  0  0  0  0  0  0  0  0  0
    0.2748    1.1697   -0.4376 C   0  0  0  0  0  0  0  0  0  0  0  0
    3.7575    0.6772   -0.5714 H   0  0  0  0  0  0  0  0  0  0  0  0
    2.2854   -0.2084    0.9381 H   0  0  0  0  0  0  0  0  0  0  0  0
    2.4967   -1.3929   -0.4329 H   0  0  0  0  0  0  0  0  0  0  0  0
    0.6444   -0.6266   -1.6138 H   0  0  0  0  0  0  0  0  0  0  0  0
    0.0619   -2.2437   -0.1205 H   0  0  0  0  0  0  0  0  0  0  0  0
    0.0682   -1.2115    1.3289 H   0  0  0  0  0  0  0  0  0  0  0  0
   -2.1915   -1.5992    0.7289 H   0  0  0  0  0  0  0  0  0  0  0  0
   -1.9263   -1.3430   -1.0081 H   0  0  0  0  0  0  0  0  0  0  0  0
   -3.0249    0.5746   -0.3929 H   0  0  0  0  0  0  0  0  0  0  0  0
   -2.3303    0.5929    1.2375 H   0  0  0  0  0  0  0  0  0  0  0  0
   -1.3272    2.5000    0.2206 H   0  0  0  0  0  0  0  0  0  0  0  0
    1.0614    1.9084   -0.1314 H   0  0  0  0  0  0  0  0  0  0  0  0
  1  2  1  0
  2  3  1  0
  3  4  1  0
  4  5  1  0
  5  6  1  0
  6  7  1  0
  7  8  1  0
  8  9  1  0
  9  3  1  0
  9  7  1  0
  1 10  1  0
  2 11  1  0
  2 12  1  0
  3 13  1  0
  4 14  1  0
  4 15  1  0
  5 16  1  0
  5 17  1  0
  6 18  1  0
  6 19  1  0
  7 20  1  0
  9 21  1  0
M  END
