
     RDKit          3D

 21 23  0  0  0  0  0  0  0  0999 V2000
    2.7174    0.0038   -1.5093 O   0  0  0  0  0  0  0  0  0  0  0  0
    2.2466   -0.0791   -0.1778 C   0  0  0  0  0  0  0  0  0  0  0  0
    0.8092   -0.2900   -0.2149 C   0  0  0  0  0  0  0  0  0  0  0  0
    0.0059   -0.4212    1.0246 C   0  0  0  0  0  0  0  0  0  0  0  0
    0.1574    1.0676    1.2138 C   0  0  0  0  0  0  0  0  0  0  0  0
   -0.1116    0.9027   -0.2642 C   0  0  0  0  0  0  0  0  0  0  0  0
   -1.1348   -0.0576    0.1383 C   0  0  0  0  0  0  0  0  0  0  0  0
   -2.5012    0.0385    0.4026 C   0  0  0  0  0  0  0  0  0  0  0  0
   -1.9182   -0.9461   -0.6677 C   0  0  0  0  0  0  0  0  0  0  0  0
    3.6786   -0.1166   -1.5713 H   0  0  0  0  0  0  0  0  0  0  0  0
    2.7484   -0.9949    0.2352 H   0  0  0  0  0  0  0  0  0  0  0  0
    2.6475    0.7786    0.3428 H   0  0  0  0  0  0  0  0  0  0  0  0
    0.5053   -1.0208   -0.9901 H   0  0  0  0  0  0  0  0  0  0  0  0
    0.0437   -1.1231    1.7392 H   0  0  0  0  0  0  0  0  0  0  0  0
   -0.7202    1.5573    1.6919 H   0  0  0  0  0  0  0  0  0  0  0  0
    1.1234    1.4467    1.5143 H   0  0  0  0  0  0  0  0  0  0  0  0
   -0.1076    1.6318   -0.9522 H   0  0  0  0  0  0  0  0  0  0  0  0
   -3.1462    0.8069   -0.0177 H   0  0  0  0  0  0  0  0  0  0  0  0
   -2.9757   -0.4886    1.2800 H   0  0  0  0  0  0  0  0  0  0  0  0
   -1.9574   -2.0235   -0.3905 H   0  0  0  0  0  0  0  0  0  0  0  0
   -2.1107   -0.6722   -1.7253 H   0  0  0  0  0  0  0  0  0  0  0  0
  1  2  1  0
  2  3  1  0
  3  4  1  0
  4  5  1  0
  5  6  1  0
  6  7  1  0
  7  8  1  0
  8  9  1  0
  6  3  1  0
  9  7  1  0
  7  4  1  0
  1 10  1  0
  2 11  1  0
  2 12  1  0
  3 13  1  0
  4 14  1  0
  5 15  1  0
  5 16  1  0
  6 17  1  0
  8 18  1  0
  8 19  1  0
  9 20  1  0
  9 21  1  0
M  END
