
     RDKit          3D

 18 19  0  0  0  0  0  0  0  0999 V2000
    2.5426   -0.8163    0.1279 O   0  0  0  0  0  0  0  0  0  0  0  0
    1.7542    0.3278    0.0928 C   0  0  0  0  0  0  0  0  0  0  0  0
    0.3826    0.0430    0.5817 C   0  0  0  0  0  0  0  0  0  0  0  0
   -0.4217   -0.9865   -0.1608 C   0  0  0  0  0  0  0  0  0  0  0  0
   -1.7296   -0.8831    0.5894 C   0  0  0  0  0  0  0  0  0  0  0  0
   -1.8793    0.4392    0.7058 C   0  0  0  0  0  0  0  0  0  0  0  0
   -0.6980    0.9755    0.0113 C   0  0  0  0  0  0  0  0  0  0  0  0
   -0.6493    0.0840   -1.2081 C   0  0  0  0  0  0  0  0  0  0  0  0
    3.3989   -0.6439   -0.3449 H   0  0  0  0  0  0  0  0  0  0  0  0
    2.2220    1.0510    0.7981 H   0  0  0  0  0  0  0  0  0  0  0  0
    1.8339    0.7566   -0.9045 H   0  0  0  0  0  0  0  0  0  0  0  0
    0.3081    0.0363    1.6656 H   0  0  0  0  0  0  0  0  0  0  0  0
   -0.0398   -1.9218   -0.4132 H   0  0  0  0  0  0  0  0  0  0  0  0
   -2.3677   -1.6881    0.9354 H   0  0  0  0  0  0  0  0  0  0  0  0
   -2.6462    1.0354    1.1759 H   0  0  0  0  0  0  0  0  0  0  0  0
   -0.4967    1.9984   -0.0582 H   0  0  0  0  0  0  0  0  0  0  0  0
    0.1412    0.2549   -1.9236 H   0  0  0  0  0  0  0  0  0  0  0  0
   -1.6551   -0.0623   -1.6704 H   0  0  0  0  0  0  0  0  0  0  0  0
  1  2  1  0
  2  3  1  0
  3  4  1  0
  4  5  1  0
  5  6  2  0
  6  7  1  0
  7  8  1  0
  7  3  1  0
  8  4  1  0
  1  9  1  0
  2 10  1  0
  2 11  1  0
  3 12  1  0
  4 13  1  0
  5 14  1  0
  6 15  1  0
  7 16  1  0
  8 17  1  0
  8 18  1  0
M  END
