
     RDKit          3D

 21 22  0  0  0  0  0  0  0  0999 V2000
    2.7689   -0.3616    0.8910 O   0  0  0  0  0  0  0  0  0  0  0  0
    2.3170   -0.2812   -0.4239 C   0  0  0  0  0  0  0  0  0  0  0  0
    0.8466   -0.1224   -0.5124 C   0  0  0  0  0  0  0  0  0  0  0  0
    0.0582   -0.9952   -1.1362 C   0  0  0  0  0  0  0  0  0  0  0  0
   -1.3201   -0.4919   -1.1046 C   0  0  0  0  0  0  0  0  0  0  0  0
   -1.8063   -0.6232    0.3295 C   0  0  0  0  0  0  0  0  0  0  0  0
   -0.8942    0.3398    1.0931 C   0  0  0  0  0  0  0  0  0  0  0  0
   -0.0217    0.9551    0.0272 C   0  0  0  0  0  0  0  0  0  0  0  0
   -1.0446    1.0248   -1.1246 C   0  0  0  0  0  0  0  0  0  0  0  0
    3.6284    0.1485    0.9259 H   0  0  0  0  0  0  0  0  0  0  0  0
    2.6777   -1.1879   -0.9424 H   0  0  0  0  0  0  0  0  0  0  0  0
    2.7733    0.5898   -0.9561 H   0  0  0  0  0  0  0  0  0  0  0  0
    0.3732   -1.9219   -1.5923 H   0  0  0  0  0  0  0  0  0  0  0  0
   -1.9933   -0.8220   -1.8557 H   0  0  0  0  0  0  0  0  0  0  0  0
   -1.6681   -1.6610    0.6282 H   0  0  0  0  0  0  0  0  0  0  0  0
   -2.8587   -0.2922    0.3568 H   0  0  0  0  0  0  0  0  0  0  0  0
   -0.2668   -0.2059    1.8358 H   0  0  0  0  0  0  0  0  0  0  0  0
   -1.4947    1.1483    1.5474 H   0  0  0  0  0  0  0  0  0  0  0  0
    0.4430    1.8807    0.2566 H   0  0  0  0  0  0  0  0  0  0  0  0
   -1.9512    1.5410   -0.8394 H   0  0  0  0  0  0  0  0  0  0  0  0
   -0.5664    1.3384   -2.0462 H   0  0  0  0  0  0  0  0  0  0  0  0
  1  2  1  0
  2  3  1  0
  3  4  2  0
  4  5  1  0
  5  6  1  0
  6  7  1  0
  7  8  1  0
  8  9  1  0
  8  3  1  0
  9  5  1  0
  1 10  1  0
  2 11  1  0
  2 12  1  0
  4 13  1  0
  5 14  1  0
  6 15  1  0
  6 16  1  0
  7 17  1  0
  7 18  1  0
  8 19  1  0
  9 20  1  0
  9 21  1  0
M  END
