
     RDKit          3D

 19 20  0  0  0  0  0  0  0  0999 V2000
    2.4601   -0.2979    0.6815 O   0  0  0  0  0  0  0  0  0  0  0  0
    1.5729   -0.9068   -0.1999 C   0  0  0  0  0  0  0  0  0  0  0  0
    0.2550   -0.3613   -0.0327 C   0  0  0  0  0  0  0  0  0  0  0  0
   -0.8348   -0.8871   -0.8875 C   0  0  0  0  0  0  0  0  0  0  0  0
   -1.8436   -0.0380   -0.7423 C   0  0  0  0  0  0  0  0  0  0  0  0
   -1.3614    1.1500    0.0507 C   0  0  0  0  0  0  0  0  0  0  0  0
    0.1178    1.1340   -0.3856 C   0  0  0  0  0  0  0  0  0  0  0  0
   -1.1931    0.7915    1.3876 O   0  0  0  0  0  0  0  0  0  0  0  0
   -0.3052   -0.2891    1.3643 C   0  0  0  0  0  0  0  0  0  0  0  0
    2.6474    0.6195    0.3567 H   0  0  0  0  0  0  0  0  0  0  0  0
    1.6078   -1.9890   -0.1255 H   0  0  0  0  0  0  0  0  0  0  0  0
    1.9666   -0.6529   -1.2278 H   0  0  0  0  0  0  0  0  0  0  0  0
   -0.8182   -1.7513   -1.4860 H   0  0  0  0  0  0  0  0  0  0  0  0
   -2.8692   -0.0975   -1.0939 H   0  0  0  0  0  0  0  0  0  0  0  0
   -1.8642    2.0588   -0.1409 H   0  0  0  0  0  0  0  0  0  0  0  0
    0.2327    1.2186   -1.4575 H   0  0  0  0  0  0  0  0  0  0  0  0
    0.7384    1.7628    0.2397 H   0  0  0  0  0  0  0  0  0  0  0  0
    0.4408   -0.2666    2.1505 H   0  0  0  0  0  0  0  0  0  0  0  0
   -0.9498   -1.1976    1.5485 H   0  0  0  0  0  0  0  0  0  0  0  0
  1  2  1  0
  2  3  1  0
  3  4  1  0
  4  5  2  0
  5  6  1  0
  6  7  1  0
  6  8  1  0
  8  9  1  0
  7  3  1  0
  9  3  1  0
  1 10  1  0
  2 11  1  0
  2 12  1  0
  4 13  1  0
  5 14  1  0
  6 15  1  0
  7 16  1  0
  7 17  1  0
  9 18  1  0
  9 19  1  0
M  END
