
     RDKit          3D

 23 24  0  0  0  0  0  0  0  0999 V2000
   -0.6149    2.4046   -0.7177 O   0  0  0  0  0  0  0  0  0  0  0  0
   -0.4756    1.7041    0.4979 C   0  0  0  0  0  0  0  0  0  0  0  0
   -0.2949    0.2552    0.1411 C   0  0  0  0  0  0  0  0  0  0  0  0
    0.8926   -0.0382   -0.7059 C   0  0  0  0  0  0  0  0  0  0  0  0
    2.2475    0.3031   -0.1874 C   0  0  0  0  0  0  0  0  0  0  0  0
    1.8327   -1.1414   -0.4011 C   0  0  0  0  0  0  0  0  0  0  0  0
   -0.6357   -0.7363    1.2127 C   0  0  0  0  0  0  0  0  0  0  0  0
   -1.2613   -1.5826    0.0923 C   0  0  0  0  0  0  0  0  0  0  0  0
   -1.5657   -0.2378   -0.5701 C   0  0  0  0  0  0  0  0  0  0  0  0
   -1.4008    2.9737   -0.7272 H   0  0  0  0  0  0  0  0  0  0  0  0
   -1.3462    1.8384    1.1567 H   0  0  0  0  0  0  0  0  0  0  0  0
    0.3942    2.1399    1.0156 H   0  0  0  0  0  0  0  0  0  0  0  0
    0.7434    0.1858   -1.8026 H   0  0  0  0  0  0  0  0  0  0  0  0
    3.0142    0.6873   -0.8948 H   0  0  0  0  0  0  0  0  0  0  0  0
    2.3193    0.6019    0.8884 H   0  0  0  0  0  0  0  0  0  0  0  0
    1.7070   -1.7961    0.4857 H   0  0  0  0  0  0  0  0  0  0  0  0
    2.2767   -1.6971   -1.2643 H   0  0  0  0  0  0  0  0  0  0  0  0
    0.1947   -1.2227    1.7302 H   0  0  0  0  0  0  0  0  0  0  0  0
   -1.4462   -0.3639    1.8582 H   0  0  0  0  0  0  0  0  0  0  0  0
   -0.4847   -2.1269   -0.4914 H   0  0  0  0  0  0  0  0  0  0  0  0
   -2.1403   -2.1523    0.3889 H   0  0  0  0  0  0  0  0  0  0  0  0
   -2.4649    0.2357   -0.1260 H   0  0  0  0  0  0  0  0  0  0  0  0
   -1.4912   -0.2346   -1.6601 H   0  0  0  0  0  0  0  0  0  0  0  0
  1  2  1  0
  2  3  1  0
  3  4  1  0
  4  5  1  0
  5  6  1  0
  3  7  1  0
  7  8  1  0
  8  9  1  0
  9  3  1  0
  6  4  1  0
  1 10  1  0
  2 11  1  0
  2 12  1  0
  4 13  1  0
  5 14  1  0
  5 15  1  0
  6 16  1  0
  6 17  1  0
  7 18  1  0
  7 19  1  0
  8 20  1  0
  8 21  1  0
  9 22  1  0
  9 23  1  0
M  END
