
     RDKit          3D

 19 20  0  0  0  0  0  0  0  0999 V2000
    2.0018    1.3511   -0.6415 O   0  0  0  0  0  0  0  0  0  0  0  0
    1.7632    0.0721   -0.1512 C   0  0  0  0  0  0  0  0  0  0  0  0
    0.3394   -0.3468   -0.2301 C   0  0  0  0  0  0  0  0  0  0  0  0
   -0.0137   -1.6850    0.2644 C   0  0  0  0  0  0  0  0  0  0  0  0
   -0.5472   -0.4920    0.9264 C   0  0  0  0  0  0  0  0  0  0  0  0
   -0.2464   -0.1019    2.1944 O   0  0  0  0  0  0  0  0  0  0  0  0
   -1.6817    0.1916    0.1601 C   0  0  0  0  0  0  0  0  0  0  0  0
   -0.6130    0.6266   -0.8060 C   0  0  0  0  0  0  0  0  0  0  0  0
   -0.9183    0.5237   -2.1460 O   0  0  0  0  0  0  0  0  0  0  0  0
    2.8676    1.6417   -0.2653 H   0  0  0  0  0  0  0  0  0  0  0  0
    2.1861   -0.0044    0.8757 H   0  0  0  0  0  0  0  0  0  0  0  0
    2.3613   -0.6610   -0.7680 H   0  0  0  0  0  0  0  0  0  0  0  0
   -0.6308   -2.3390   -0.3870 H   0  0  0  0  0  0  0  0  0  0  0  0
    0.7748   -2.2334    0.8078 H   0  0  0  0  0  0  0  0  0  0  0  0
   -1.0485    0.3938    2.5559 H   0  0  0  0  0  0  0  0  0  0  0  0
   -2.3744   -0.5306   -0.3273 H   0  0  0  0  0  0  0  0  0  0  0  0
   -2.1290    0.9616    0.7820 H   0  0  0  0  0  0  0  0  0  0  0  0
   -0.2959    1.6785   -0.5425 H   0  0  0  0  0  0  0  0  0  0  0  0
   -1.7955    0.9535   -2.3019 H   0  0  0  0  0  0  0  0  0  0  0  0
  1  2  1  0
  2  3  1  0
  3  4  1  0
  4  5  1  0
  5  6  1  0
  5  7  1  0
  7  8  1  0
  8  9  1  0
  5  3  1  0
  8  3  1  0
  1 10  1  0
  2 11  1  0
  2 12  1  0
  4 13  1  0
  4 14  1  0
  6 15  1  0
  7 16  1  0
  7 17  1  0
  8 18  1  0
  9 19  1  0
M  END
