
     RDKit          3D

 19 20  0  0  0  0  0  0  0  0999 V2000
    2.7613   -0.2500   -0.4835 O   0  0  0  0  0  0  0  0  0  0  0  0
    1.5300    0.2810   -0.7677 C   0  0  0  0  0  0  0  0  0  0  0  0
    0.4862    0.0056    0.2709 C   0  0  0  0  0  0  0  0  0  0  0  0
    0.1326   -1.4434    0.5862 C   0  0  0  0  0  0  0  0  0  0  0  0
   -0.8787   -1.6947   -0.3140 O   0  0  0  0  0  0  0  0  0  0  0  0
   -1.7375   -0.5973   -0.1654 C   0  0  0  0  0  0  0  0  0  0  0  0
   -0.8790    0.6170   -0.1066 C   0  0  0  0  0  0  0  0  0  0  0  0
   -0.9397    1.5249   -1.1290 O   0  0  0  0  0  0  0  0  0  0  0  0
   -0.1317    1.0187    1.1029 C   0  0  0  0  0  0  0  0  0  0  0  0
    3.0428    0.0518    0.4128 H   0  0  0  0  0  0  0  0  0  0  0  0
    1.1683   -0.2142   -1.7176 H   0  0  0  0  0  0  0  0  0  0  0  0
    1.5380    1.3562   -0.9885 H   0  0  0  0  0  0  0  0  0  0  0  0
   -0.2415   -1.4922    1.6489 H   0  0  0  0  0  0  0  0  0  0  0  0
    0.9937   -2.1056    0.4968 H   0  0  0  0  0  0  0  0  0  0  0  0
   -2.4605   -0.7113    0.6363 H   0  0  0  0  0  0  0  0  0  0  0  0
   -2.3285   -0.5589   -1.1257 H   0  0  0  0  0  0  0  0  0  0  0  0
   -1.7869    1.4947   -1.6109 H   0  0  0  0  0  0  0  0  0  0  0  0
   -0.5237    0.6754    2.1056 H   0  0  0  0  0  0  0  0  0  0  0  0
    0.2546    2.0422    1.1486 H   0  0  0  0  0  0  0  0  0  0  0  0
  1  2  1  0
  2  3  1  0
  3  4  1  0
  4  5  1  0
  5  6  1  0
  6  7  1  0
  7  8  1  0
  7  9  1  0
  7  3  1  0
  9  3  1  0
  1 10  1  0
  2 11  1  0
  2 12  1  0
  4 13  1  0
  4 14  1  0
  6 15  1  0
  6 16  1  0
  8 17  1  0
  9 18  1  0
  9 19  1  0
M  END
