
     RDKit          3D

 15 15  0  0  0  0  0  0  0  0999 V2000
    2.8633   -0.3090    0.4435 O   0  0  0  0  0  0  0  0  0  0  0  0
    1.9089    0.5734   -0.0853 C   0  0  0  0  0  0  0  0  0  0  0  0
    0.6187   -0.1907   -0.1972 C   0  0  0  0  0  0  0  0  0  0  0  0
    0.1594   -0.6795    1.0620 O   0  0  0  0  0  0  0  0  0  0  0  0
   -0.6227    0.3247    0.4884 C   0  0  0  0  0  0  0  0  0  0  0  0
   -1.9070   -0.0566   -0.2020 C   0  0  0  0  0  0  0  0  0  0  0  0
   -2.8001   -0.6901    0.6567 O   0  0  0  0  0  0  0  0  0  0  0  0
    3.3095   -0.8268   -0.2973 H   0  0  0  0  0  0  0  0  0  0  0  0
    2.1708    0.9478   -1.0743 H   0  0  0  0  0  0  0  0  0  0  0  0
    1.8292    1.4220    0.6431 H   0  0  0  0  0  0  0  0  0  0  0  0
    0.5502   -0.8633   -1.0527 H   0  0  0  0  0  0  0  0  0  0  0  0
   -0.5310    1.3599    0.8887 H   0  0  0  0  0  0  0  0  0  0  0  0
   -2.3686    0.9061   -0.5531 H   0  0  0  0  0  0  0  0  0  0  0  0
   -1.7363   -0.6703   -1.0855 H   0  0  0  0  0  0  0  0  0  0  0  0
   -3.4444   -1.2476    0.1586 H   0  0  0  0  0  0  0  0  0  0  0  0
  1  2  1  0
  2  3  1  0
  3  4  1  0
  4  5  1  0
  5  6  1  0
  6  7  1  0
  5  3  1  0
  1  8  1  0
  2  9  1  0
  2 10  1  0
  3 11  1  0
  5 12  1  0
  6 13  1  0
  6 14  1  0
  7 15  1  0
M  END
