
     RDKit          3D

 23 23  0  0  0  0  0  0  0  0999 V2000
   -1.7633   -2.1304    0.3343 O   0  0  0  0  0  0  0  0  0  0  0  0
   -1.9745   -0.7817    0.1775 C   0  0  0  0  0  0  0  0  0  0  0  0
   -0.7039   -0.0156    0.4632 C   0  0  0  0  0  0  0  0  0  0  0  0
   -0.9183    1.4752    0.2950 C   0  0  0  0  0  0  0  0  0  0  0  0
    0.5409    1.9354    0.3293 C   0  0  0  0  0  0  0  0  0  0  0  0
    1.1313    1.0215   -0.7246 C   0  0  0  0  0  0  0  0  0  0  0  0
    0.3762   -0.2864   -0.5556 C   0  0  0  0  0  0  0  0  0  0  0  0
    1.3682   -1.3226   -0.0634 C   0  0  0  0  0  0  0  0  0  0  0  0
    2.3285   -1.5317   -1.0267 O   0  0  0  0  0  0  0  0  0  0  0  0
   -2.5745   -2.5122    0.7598 H   0  0  0  0  0  0  0  0  0  0  0  0
   -2.3261   -0.4895   -0.8326 H   0  0  0  0  0  0  0  0  0  0  0  0
   -2.7383   -0.4017    0.8947 H   0  0  0  0  0  0  0  0  0  0  0  0
   -0.3111   -0.2087    1.4691 H   0  0  0  0  0  0  0  0  0  0  0  0
   -1.5032    1.9204    1.1169 H   0  0  0  0  0  0  0  0  0  0  0  0
   -1.3702    1.6664   -0.7041 H   0  0  0  0  0  0  0  0  0  0  0  0
    0.9056    1.6917    1.3482 H   0  0  0  0  0  0  0  0  0  0  0  0
    0.6381    2.9999    0.0744 H   0  0  0  0  0  0  0  0  0  0  0  0
    0.9209    1.4851   -1.7106 H   0  0  0  0  0  0  0  0  0  0  0  0
    2.2027    0.9258   -0.5034 H   0  0  0  0  0  0  0  0  0  0  0  0
   -0.1187   -0.5997   -1.4834 H   0  0  0  0  0  0  0  0  0  0  0  0
    0.8683   -2.3009    0.1226 H   0  0  0  0  0  0  0  0  0  0  0  0
    1.7757   -0.9439    0.8954 H   0  0  0  0  0  0  0  0  0  0  0  0
    3.2455   -1.5967   -0.6760 H   0  0  0  0  0  0  0  0  0  0  0  0
  1  2  1  0
  2  3  1  0
  3  4  1  0
  4  5  1  0
  5  6  1  0
  6  7  1  0
  7  8  1  0
  8  9  1  0
  7  3  1  0
  1 10  1  0
  2 11  1  0
  2 12  1  0
  3 13  1  0
  4 14  1  0
  4 15  1  0
  5 16  1  0
  5 17  1  0
  6 18  1  0
  6 19  1  0
  7 20  1  0
  8 21  1  0
  8 22  1  0
  9 23  1  0
M  END
