
     RDKit          3D

 19 20  0  0  0  0  0  0  0  0999 V2000
   -2.3402   -0.2914   -1.3139 O   0  0  0  0  0  0  0  0  0  0  0  0
   -1.7748   -0.9074   -0.1732 C   0  0  0  0  0  0  0  0  0  0  0  0
   -0.8178    0.0821    0.4164 C   0  0  0  0  0  0  0  0  0  0  0  0
   -0.0797   -0.3272    1.6453 C   0  0  0  0  0  0  0  0  0  0  0  0
    0.8969    0.7636    1.3045 C   0  0  0  0  0  0  0  0  0  0  0  0
    0.6047   -0.0176    0.0576 C   0  0  0  0  0  0  0  0  0  0  0  0
    1.2075    0.1803   -1.1742 C   0  0  0  0  0  0  0  0  0  0  0  0
    2.6148    0.0677   -1.0836 O   0  0  0  0  0  0  0  0  0  0  0  0
    0.6821   -1.1555    0.8357 O   0  0  0  0  0  0  0  0  0  0  0  0
   -2.7027    0.6124   -1.0638 H   0  0  0  0  0  0  0  0  0  0  0  0
   -1.3249   -1.8487   -0.4750 H   0  0  0  0  0  0  0  0  0  0  0  0
   -2.6167   -1.0502    0.5341 H   0  0  0  0  0  0  0  0  0  0  0  0
   -1.1766    1.1155    0.4448 H   0  0  0  0  0  0  0  0  0  0  0  0
   -0.4544   -0.5379    2.5556 H   0  0  0  0  0  0  0  0  0  0  0  0
    1.8938    0.6932    1.7254 H   0  0  0  0  0  0  0  0  0  0  0  0
    0.4275    1.7684    1.2514 H   0  0  0  0  0  0  0  0  0  0  0  0
    1.0140    1.1633   -1.6120 H   0  0  0  0  0  0  0  0  0  0  0  0
    0.9004   -0.5723   -1.9299 H   0  0  0  0  0  0  0  0  0  0  0  0
    3.0460    0.2617   -1.9453 H   0  0  0  0  0  0  0  0  0  0  0  0
  1  2  1  0
  2  3  1  0
  3  4  1  0
  4  5  1  0
  5  6  1  0
  6  7  1  0
  7  8  1  0
  6  9  1  0
  6  3  1  0
  9  4  1  0
  1 10  1  0
  2 11  1  0
  2 12  1  0
  3 13  1  0
  4 14  1  0
  5 15  1  0
  5 16  1  0
  7 17  1  0
  7 18  1  0
  8 19  1  0
M  END
