
     RDKit          3D

 16 17  0  0  0  0  0  0  0  0999 V2000
    2.2937    0.7891   -0.4459 O   0  0  0  0  0  0  0  0  0  0  0  0
    1.4202   -0.2603   -0.7010 C   0  0  0  0  0  0  0  0  0  0  0  0
    0.2030   -0.1220    0.1697 C   0  0  0  0  0  0  0  0  0  0  0  0
    0.4386   -0.1352    1.5127 O   0  0  0  0  0  0  0  0  0  0  0  0
   -0.9629   -0.9079   -0.3472 C   0  0  0  0  0  0  0  0  0  0  0  0
   -1.8479   -0.0100    0.4464 C   0  0  0  0  0  0  0  0  0  0  0  0
   -0.8381    0.8443   -0.2599 C   0  0  0  0  0  0  0  0  0  0  0  0
   -1.0360    0.0309   -1.3662 O   0  0  0  0  0  0  0  0  0  0  0  0
    2.7920    0.5637    0.3975 H   0  0  0  0  0  0  0  0  0  0  0  0
    1.9284   -1.2091   -0.3951 H   0  0  0  0  0  0  0  0  0  0  0  0
    1.1966   -0.3233   -1.7637 H   0  0  0  0  0  0  0  0  0  0  0  0
    0.7478    0.7830    1.7760 H   0  0  0  0  0  0  0  0  0  0  0  0
   -1.0238   -1.9091   -0.4440 H   0  0  0  0  0  0  0  0  0  0  0  0
   -1.6269   -0.0672    1.5297 H   0  0  0  0  0  0  0  0  0  0  0  0
   -2.8895    0.0817    0.1471 H   0  0  0  0  0  0  0  0  0  0  0  0
   -0.7952    1.8513   -0.2561 H   0  0  0  0  0  0  0  0  0  0  0  0
  1  2  1  0
  2  3  1  0
  3  4  1  0
  3  5  1  0
  5  6  1  0
  6  7  1  0
  7  8  1  0
  7  3  1  0
  8  5  1  0
  1  9  1  0
  2 10  1  0
  2 11  1  0
  4 12  1  0
  5 13  1  0
  6 14  1  0
  6 15  1  0
  7 16  1  0
M  END
