
     RDKit          3D

 19 20  0  0  0  0  0  0  0  0999 V2000
    2.4748    1.1214   -0.5116 O   0  0  0  0  0  0  0  0  0  0  0  0
    1.6208    0.0291   -0.8079 C   0  0  0  0  0  0  0  0  0  0  0  0
    0.6252   -0.0319    0.2880 C   0  0  0  0  0  0  0  0  0  0  0  0
   -0.4211   -1.0835    0.2727 C   0  0  0  0  0  0  0  0  0  0  0  0
   -0.3311   -2.3224    0.3775 O   0  0  0  0  0  0  0  0  0  0  0  0
   -1.1236   -0.2773   -0.7846 C   0  0  0  0  0  0  0  0  0  0  0  0
   -0.6425    0.7684    0.1488 C   0  0  0  0  0  0  0  0  0  0  0  0
   -0.7620    2.0142    0.1010 O   0  0  0  0  0  0  0  0  0  0  0  0
   -1.1603   -0.1513    1.2402 C   0  0  0  0  0  0  0  0  0  0  0  0
    1.9238    1.8121   -0.0749 H   0  0  0  0  0  0  0  0  0  0  0  0
    2.2918   -0.8659   -0.7642 H   0  0  0  0  0  0  0  0  0  0  0  0
    1.1959    0.1673   -1.8203 H   0  0  0  0  0  0  0  0  0  0  0  0
    1.0189    0.1099    1.3194 H   0  0  0  0  0  0  0  0  0  0  0  0
    0.5613   -2.7152    0.5516 H   0  0  0  0  0  0  0  0  0  0  0  0
   -0.7486   -0.3160   -1.8034 H   0  0  0  0  0  0  0  0  0  0  0  0
   -2.2498   -0.3681   -0.6991 H   0  0  0  0  0  0  0  0  0  0  0  0
   -1.4395    2.4470    0.6759 H   0  0  0  0  0  0  0  0  0  0  0  0
   -2.2375   -0.2817    1.2787 H   0  0  0  0  0  0  0  0  0  0  0  0
   -0.5965   -0.0561    2.1663 H   0  0  0  0  0  0  0  0  0  0  0  0
  1  2  1  0
  2  3  1  0
  3  4  1  0
  4  5  1  0
  4  6  1  0
  6  7  1  0
  7  8  1  0
  7  9  1  0
  7  3  1  0
  9  4  1  0
  1 10  1  0
  2 11  1  0
  2 12  1  0
  3 13  1  0
  5 14  1  0
  6 15  1  0
  6 16  1  0
  8 17  1  0
  9 18  1  0
  9 19  1  0
M  END
