
     RDKit          3D

 19 20  0  0  0  0  0  0  0  0999 V2000
   -0.8688    1.0690   -1.6501 O   0  0  0  0  0  0  0  0  0  0  0  0
   -1.5850    0.7870   -0.4924 C   0  0  0  0  0  0  0  0  0  0  0  0
   -0.8900   -0.1988    0.3797 C   0  0  0  0  0  0  0  0  0  0  0  0
   -0.6910   -1.5130   -0.3768 C   0  0  0  0  0  0  0  0  0  0  0  0
    0.6541   -1.3335   -1.0090 C   0  0  0  0  0  0  0  0  0  0  0  0
    1.3422   -0.3605   -0.4451 C   0  0  0  0  0  0  0  0  0  0  0  0
    2.2194    0.7091    0.1014 C   0  0  0  0  0  0  0  0  0  0  0  0
    0.9929    1.4176    0.3034 O   0  0  0  0  0  0  0  0  0  0  0  0
    0.5070    0.1874    0.7134 C   0  0  0  0  0  0  0  0  0  0  0  0
   -0.9800    2.0503   -1.8320 H   0  0  0  0  0  0  0  0  0  0  0  0
   -1.8619    1.7138    0.0492 H   0  0  0  0  0  0  0  0  0  0  0  0
   -2.5661    0.3265   -0.7953 H   0  0  0  0  0  0  0  0  0  0  0  0
   -1.4453   -0.4343    1.3065 H   0  0  0  0  0  0  0  0  0  0  0  0
   -1.4915   -1.6336   -1.1323 H   0  0  0  0  0  0  0  0  0  0  0  0
   -0.7411   -2.3810    0.2998 H   0  0  0  0  0  0  0  0  0  0  0  0
    1.0035   -1.9350   -1.8259 H   0  0  0  0  0  0  0  0  0  0  0  0
    2.9003    1.1896   -0.5962 H   0  0  0  0  0  0  0  0  0  0  0  0
    2.6048    0.4393    1.0999 H   0  0  0  0  0  0  0  0  0  0  0  0
    0.8964   -0.0997    1.6977 H   0  0  0  0  0  0  0  0  0  0  0  0
  1  2  1  0
  2  3  1  0
  3  4  1  0
  4  5  1  0
  5  6  2  0
  6  7  1  0
  7  8  1  0
  8  9  1  0
  9  3  1  0
  9  6  1  0
  1 10  1  0
  2 11  1  0
  2 12  1  0
  3 13  1  0
  4 14  1  0
  4 15  1  0
  5 16  1  0
  7 17  1  0
  7 18  1  0
  9 19  1  0
M  END
