
     RDKit          3D

 19 20  0  0  0  0  0  0  0  0999 V2000
    2.6862   -0.8434    1.2248 O   0  0  0  0  0  0  0  0  0  0  0  0
    2.2768    0.0093    0.2025 C   0  0  0  0  0  0  0  0  0  0  0  0
    0.8338    0.4082    0.3808 C   0  0  0  0  0  0  0  0  0  0  0  0
    0.3326    1.3569   -0.7324 C   0  0  0  0  0  0  0  0  0  0  0  0
   -0.9819    0.7508   -0.4588 C   0  0  0  0  0  0  0  0  0  0  0  0
   -2.2336    0.4143   -0.2612 C   0  0  0  0  0  0  0  0  0  0  0  0
   -2.2848   -1.0448    0.1276 C   0  0  0  0  0  0  0  0  0  0  0  0
   -0.9686   -1.2694    0.6162 O   0  0  0  0  0  0  0  0  0  0  0  0
   -0.1706   -0.5251   -0.2447 C   0  0  0  0  0  0  0  0  0  0  0  0
    1.8545   -1.1535    1.6987 H   0  0  0  0  0  0  0  0  0  0  0  0
    2.4723   -0.3890   -0.7968 H   0  0  0  0  0  0  0  0  0  0  0  0
    2.8756    0.9495    0.3286 H   0  0  0  0  0  0  0  0  0  0  0  0
    0.5589    0.7409    1.3782 H   0  0  0  0  0  0  0  0  0  0  0  0
    0.4475    2.4245   -0.4748 H   0  0  0  0  0  0  0  0  0  0  0  0
    0.7426    1.0253   -1.6914 H   0  0  0  0  0  0  0  0  0  0  0  0
   -3.1415    1.0082   -0.3386 H   0  0  0  0  0  0  0  0  0  0  0  0
   -2.4935   -1.6352   -0.7639 H   0  0  0  0  0  0  0  0  0  0  0  0
   -2.9478   -1.2202    0.9808 H   0  0  0  0  0  0  0  0  0  0  0  0
    0.1417   -1.0074   -1.1754 H   0  0  0  0  0  0  0  0  0  0  0  0
  1  2  1  0
  2  3  1  0
  3  4  1  0
  4  5  1  0
  5  6  2  0
  6  7  1  0
  7  8  1  0
  8  9  1  0
  9  3  1  0
  9  5  1  0
  1 10  1  0
  2 11  1  0
  2 12  1  0
  3 13  1  0
  4 14  1  0
  4 15  1  0
  6 16  1  0
  7 17  1  0
  7 18  1  0
  9 19  1  0
M  END
