
     RDKit          3D

 19 20  0  0  0  0  0  0  0  0999 V2000
    2.8413    0.3880   -0.2954 O   0  0  0  0  0  0  0  0  0  0  0  0
    1.9036   -0.5968   -0.6483 C   0  0  0  0  0  0  0  0  0  0  0  0
    0.6282   -0.2719    0.0245 C   0  0  0  0  0  0  0  0  0  0  0  0
   -0.0147   -1.0337    0.8886 C   0  0  0  0  0  0  0  0  0  0  0  0
   -1.2619   -0.2752    1.2905 C   0  0  0  0  0  0  0  0  0  0  0  0
   -1.5268    0.2414   -0.0960 C   0  0  0  0  0  0  0  0  0  0  0  0
   -1.6397   -0.9167   -0.9162 O   0  0  0  0  0  0  0  0  0  0  0  0
   -1.2547    1.4032   -0.8092 C   0  0  0  0  0  0  0  0  0  0  0  0
   -0.1153    0.9595   -0.1274 C   0  0  0  0  0  0  0  0  0  0  0  0
    2.7574    0.6549    0.6505 H   0  0  0  0  0  0  0  0  0  0  0  0
    1.7575   -0.4944   -1.7420 H   0  0  0  0  0  0  0  0  0  0  0  0
    2.2805   -1.6089   -0.4170 H   0  0  0  0  0  0  0  0  0  0  0  0
    0.2619   -1.9893    1.2482 H   0  0  0  0  0  0  0  0  0  0  0  0
   -0.9287    0.4886    2.0005 H   0  0  0  0  0  0  0  0  0  0  0  0
   -2.0485   -0.9425    1.6489 H   0  0  0  0  0  0  0  0  0  0  0  0
   -0.7865   -1.3510   -1.0548 H   0  0  0  0  0  0  0  0  0  0  0  0
   -1.7668    2.3568   -0.5063 H   0  0  0  0  0  0  0  0  0  0  0  0
   -1.2082    1.3985   -1.9383 H   0  0  0  0  0  0  0  0  0  0  0  0
    0.1211    1.5894    0.7991 H   0  0  0  0  0  0  0  0  0  0  0  0
  1  2  1  0
  2  3  1  0
  3  4  2  0
  4  5  1  0
  5  6  1  0
  6  7  1  0
  6  8  1  0
  8  9  1  0
  9  3  1  0
  9  6  1  0
  1 10  1  0
  2 11  1  0
  2 12  1  0
  4 13  1  0
  5 14  1  0
  5 15  1  0
  7 16  1  0
  8 17  1  0
  8 18  1  0
  9 19  1  0
M  END
