
     RDKit          3D

 17 18  0  0  0  0  0  0  0  0999 V2000
    1.6023   -1.1226    0.2350 O   0  0  0  0  0  0  0  0  0  0  0  0
    1.5293   -0.2341   -0.8009 C   0  0  0  0  0  0  0  0  0  0  0  0
    0.1967    0.4787   -0.7627 C   0  0  0  0  0  0  0  0  0  0  0  0
   -0.0859    1.2574    0.4798 C   0  0  0  0  0  0  0  0  0  0  0  0
   -1.2579    0.3754    0.8438 C   0  0  0  0  0  0  0  0  0  0  0  0
   -1.1687   -1.0867    0.7265 C   0  0  0  0  0  0  0  0  0  0  0  0
   -1.0218   -0.3313   -0.5090 C   0  0  0  0  0  0  0  0  0  0  0  0
    2.4492   -1.1280    0.7208 H   0  0  0  0  0  0  0  0  0  0  0  0
    2.3447    0.5322   -0.7576 H   0  0  0  0  0  0  0  0  0  0  0  0
    1.6890   -0.7439   -1.7853 H   0  0  0  0  0  0  0  0  0  0  0  0
    0.0914    1.0880   -1.7044 H   0  0  0  0  0  0  0  0  0  0  0  0
    0.7335    1.2849    1.2197 H   0  0  0  0  0  0  0  0  0  0  0  0
   -0.4369    2.2936    0.2403 H   0  0  0  0  0  0  0  0  0  0  0  0
   -2.2228    0.8413    1.0151 H   0  0  0  0  0  0  0  0  0  0  0  0
   -0.3818   -1.6482    1.2182 H   0  0  0  0  0  0  0  0  0  0  0  0
   -2.1604   -1.6236    0.8280 H   0  0  0  0  0  0  0  0  0  0  0  0
   -1.9000   -0.2330   -1.2073 H   0  0  0  0  0  0  0  0  0  0  0  0
  1  2  1  0
  2  3  1  0
  3  4  1  0
  4  5  1  0
  5  6  1  0
  6  7  1  0
  7  3  1  0
  7  5  1  0
  1  8  1  0
  2  9  1  0
  2 10  1  0
  3 11  1  0
  4 12  1  0
  4 13  1  0
  5 14  1  0
  6 15  1  0
  6 16  1  0
  7 17  1  0
M  END
