
     RDKit          3D

 16 17  0  0  0  0  0  0  0  0999 V2000
    1.5284    1.5115    0.2069 O   0  0  0  0  0  0  0  0  0  0  0  0
    1.3660    0.1517    0.1420 C   0  0  0  0  0  0  0  0  0  0  0  0
   -0.0627   -0.2900    0.3068 C   0  0  0  0  0  0  0  0  0  0  0  0
   -0.3627   -1.7625    0.2533 C   0  0  0  0  0  0  0  0  0  0  0  0
   -1.2668   -1.6063   -0.7894 O   0  0  0  0  0  0  0  0  0  0  0  0
   -0.9110   -0.2644   -0.9601 C   0  0  0  0  0  0  0  0  0  0  0  0
   -1.1985    0.6275    0.1737 C   0  0  0  0  0  0  0  0  0  0  0  0
   -1.0335    1.9898   -0.0289 O   0  0  0  0  0  0  0  0  0  0  0  0
    2.4223    1.7481   -0.1576 H   0  0  0  0  0  0  0  0  0  0  0  0
    1.9955   -0.3599    0.8864 H   0  0  0  0  0  0  0  0  0  0  0  0
    1.7125   -0.1948   -0.8647 H   0  0  0  0  0  0  0  0  0  0  0  0
    0.5611   -2.3379   -0.0006 H   0  0  0  0  0  0  0  0  0  0  0  0
   -0.9010   -2.1538    1.1612 H   0  0  0  0  0  0  0  0  0  0  0  0
   -0.4240    0.0628   -1.8805 H   0  0  0  0  0  0  0  0  0  0  0  0
   -2.1013    0.3869    0.7801 H   0  0  0  0  0  0  0  0  0  0  0  0
   -1.3243    2.4911    0.7713 H   0  0  0  0  0  0  0  0  0  0  0  0
  1  2  1  0
  2  3  1  0
  3  4  1  0
  4  5  1  0
  5  6  1  0
  6  7  1  0
  7  8  1  0
  6  3  1  0
  7  3  1  0
  1  9  1  0
  2 10  1  0
  2 11  1  0
  4 12  1  0
  4 13  1  0
  6 14  1  0
  7 15  1  0
  8 16  1  0
M  END
