
     RDKit          3D

 18 19  0  0  0  0  0  0  0  0999 V2000
    2.7450    0.1803    0.5423 O   0  0  0  0  0  0  0  0  0  0  0  0
    1.7424   -0.8034    0.4400 C   0  0  0  0  0  0  0  0  0  0  0  0
    0.4538   -0.2886    1.0159 C   0  0  0  0  0  0  0  0  0  0  0  0
   -0.5629   -1.2440    0.9261 O   0  0  0  0  0  0  0  0  0  0  0  0
   -1.4782   -0.6425    0.1119 C   0  0  0  0  0  0  0  0  0  0  0  0
   -1.5453    0.8015    0.6426 C   0  0  0  0  0  0  0  0  0  0  0  0
   -0.0984    0.7888    0.1623 C   0  0  0  0  0  0  0  0  0  0  0  0
   -0.6609    0.0184   -1.0123 C   0  0  0  0  0  0  0  0  0  0  0  0
    2.2530    1.0452    0.5522 H   0  0  0  0  0  0  0  0  0  0  0  0
    1.6985   -1.0850   -0.6181 H   0  0  0  0  0  0  0  0  0  0  0  0
    2.0484   -1.7255    0.9885 H   0  0  0  0  0  0  0  0  0  0  0  0
    0.6083    0.0275    2.0778 H   0  0  0  0  0  0  0  0  0  0  0  0
   -2.3923   -1.1031   -0.1569 H   0  0  0  0  0  0  0  0  0  0  0  0
   -2.1324    1.4826   -0.0075 H   0  0  0  0  0  0  0  0  0  0  0  0
   -1.6896    0.8799    1.7171 H   0  0  0  0  0  0  0  0  0  0  0  0
    0.3949    1.7014    0.0004 H   0  0  0  0  0  0  0  0  0  0  0  0
   -1.3894    0.6032   -1.6267 H   0  0  0  0  0  0  0  0  0  0  0  0
    0.0054   -0.6366   -1.5570 H   0  0  0  0  0  0  0  0  0  0  0  0
  1  2  1  0
  2  3  1  0
  3  4  1  0
  4  5  1  0
  5  6  1  0
  6  7  1  0
  7  8  1  0
  7  3  1  0
  8  5  1  0
  1  9  1  0
  2 10  1  0
  2 11  1  0
  3 12  1  0
  5 13  1  0
  6 14  1  0
  6 15  1  0
  7 16  1  0
  8 17  1  0
  8 18  1  0
M  END
