
     RDKit          3D

 23 24  0  0  0  0  0  0  0  0999 V2000
    2.7697    0.0160    0.9202 O   0  0  0  0  0  0  0  0  0  0  0  0
    2.3130    0.5588   -0.2717 C   0  0  0  0  0  0  0  0  0  0  0  0
    0.8916    0.1619   -0.5585 C   0  0  0  0  0  0  0  0  0  0  0  0
    0.6087   -1.2937   -0.6897 C   0  0  0  0  0  0  0  0  0  0  0  0
   -0.5017   -1.1498    0.3151 C   0  0  0  0  0  0  0  0  0  0  0  0
   -1.8716   -0.8960   -0.2524 C   0  0  0  0  0  0  0  0  0  0  0  0
   -2.0023    0.6030   -0.4150 C   0  0  0  0  0  0  0  0  0  0  0  0
   -1.0762    1.1539    0.6361 C   0  0  0  0  0  0  0  0  0  0  0  0
    0.0713    0.1794    0.6935 C   0  0  0  0  0  0  0  0  0  0  0  0
    2.8518    0.6650    1.6396 H   0  0  0  0  0  0  0  0  0  0  0  0
    2.9989    0.3996   -1.1220 H   0  0  0  0  0  0  0  0  0  0  0  0
    2.2980    1.6770   -0.1124 H   0  0  0  0  0  0  0  0  0  0  0  0
    0.4804    0.7209   -1.4197 H   0  0  0  0  0  0  0  0  0  0  0  0
    0.3159   -1.6217   -1.6972 H   0  0  0  0  0  0  0  0  0  0  0  0
    1.4170   -1.9311   -0.2824 H   0  0  0  0  0  0  0  0  0  0  0  0
   -0.5224   -1.9117    1.1201 H   0  0  0  0  0  0  0  0  0  0  0  0
   -2.0540   -1.4430   -1.2034 H   0  0  0  0  0  0  0  0  0  0  0  0
   -2.6575   -1.2153    0.4660 H   0  0  0  0  0  0  0  0  0  0  0  0
   -3.0265    0.9559   -0.1679 H   0  0  0  0  0  0  0  0  0  0  0  0
   -1.7307    0.9471   -1.4262 H   0  0  0  0  0  0  0  0  0  0  0  0
   -1.5646    1.1485    1.6277 H   0  0  0  0  0  0  0  0  0  0  0  0
   -0.6550    2.1378    0.3567 H   0  0  0  0  0  0  0  0  0  0  0  0
    0.6464    0.1376    1.6148 H   0  0  0  0  0  0  0  0  0  0  0  0
  1  2  1  0
  2  3  1  0
  3  4  1  0
  4  5  1  0
  5  6  1  0
  6  7  1  0
  7  8  1  0
  8  9  1  0
  9  3  1  0
  9  5  1  0
  1 10  1  0
  2 11  1  0
  2 12  1  0
  3 13  1  0
  4 14  1  0
  4 15  1  0
  5 16  1  0
  6 17  1  0
  6 18  1  0
  7 19  1  0
  7 20  1  0
  8 21  1  0
  8 22  1  0
  9 23  1  0
M  END
