
     RDKit          3D

 21 22  0  0  0  0  0  0  0  0999 V2000
   -2.8476   -1.3326   -0.3252 O   0  0  0  0  0  0  0  0  0  0  0  0
   -1.7608   -0.6811   -0.9434 C   0  0  0  0  0  0  0  0  0  0  0  0
   -1.0379    0.2020    0.0138 C   0  0  0  0  0  0  0  0  0  0  0  0
    0.1315    0.9394   -0.5411 C   0  0  0  0  0  0  0  0  0  0  0  0
    0.7394    1.9712    0.3729 C   0  0  0  0  0  0  0  0  0  0  0  0
    1.0593    0.8561    1.3432 C   0  0  0  0  0  0  0  0  0  0  0  0
    0.3286   -0.1229    0.4729 C   0  0  0  0  0  0  0  0  0  0  0  0
    1.0146   -1.4012    0.1482 C   0  0  0  0  0  0  0  0  0  0  0  0
    1.1818   -1.6262   -1.2105 O   0  0  0  0  0  0  0  0  0  0  0  0
   -3.1186   -0.8788    0.5124 H   0  0  0  0  0  0  0  0  0  0  0  0
   -2.2330   -0.0099   -1.7176 H   0  0  0  0  0  0  0  0  0  0  0  0
   -1.1377   -1.4629   -1.4145 H   0  0  0  0  0  0  0  0  0  0  0  0
   -1.7325    0.7902    0.6805 H   0  0  0  0  0  0  0  0  0  0  0  0
    0.4447    0.8502   -1.5783 H   0  0  0  0  0  0  0  0  0  0  0  0
    1.6134    2.4969   -0.0410 H   0  0  0  0  0  0  0  0  0  0  0  0
   -0.0195    2.6716    0.7874 H   0  0  0  0  0  0  0  0  0  0  0  0
    0.6857    0.9893    2.3640 H   0  0  0  0  0  0  0  0  0  0  0  0
    2.1542    0.6301    1.3835 H   0  0  0  0  0  0  0  0  0  0  0  0
    0.4807   -2.2824    0.5934 H   0  0  0  0  0  0  0  0  0  0  0  0
    2.0141   -1.3968    0.6269 H   0  0  0  0  0  0  0  0  0  0  0  0
    2.0397   -1.2021   -1.5278 H   0  0  0  0  0  0  0  0  0  0  0  0
  1  2  1  0
  2  3  1  0
  3  4  1  0
  4  5  1  0
  5  6  1  0
  6  7  1  0
  7  8  1  0
  8  9  1  0
  7  3  1  0
  7  4  1  0
  1 10  1  0
  2 11  1  0
  2 12  1  0
  3 13  1  0
  4 14  1  0
  5 15  1  0
  5 16  1  0
  6 17  1  0
  6 18  1  0
  8 19  1  0
  8 20  1  0
  9 21  1  0
M  END
