
     RDKit          3D

 19 21  0  0  0  0  0  0  0  0999 V2000
    2.4127    0.1399    1.5410 O   0  0  0  0  0  0  0  0  0  0  0  0
    1.7173   -0.7669    0.7440 C   0  0  0  0  0  0  0  0  0  0  0  0
    1.0579    0.0065   -0.3743 C   0  0  0  0  0  0  0  0  0  0  0  0
    0.2277   -0.8046   -1.3860 C   0  0  0  0  0  0  0  0  0  0  0  0
   -0.4030    0.0220   -0.3852 C   0  0  0  0  0  0  0  0  0  0  0  0
   -1.2202    1.2289   -0.6360 C   0  0  0  0  0  0  0  0  0  0  0  0
   -2.0886    0.8459    0.5598 C   0  0  0  0  0  0  0  0  0  0  0  0
   -1.4805    0.4636    1.7365 O   0  0  0  0  0  0  0  0  0  0  0  0
   -1.2664   -0.4392    0.7200 C   0  0  0  0  0  0  0  0  0  0  0  0
    2.9973    0.7205    0.9667 H   0  0  0  0  0  0  0  0  0  0  0  0
    0.9645   -1.2537    1.3960 H   0  0  0  0  0  0  0  0  0  0  0  0
    2.4259   -1.5284    0.3832 H   0  0  0  0  0  0  0  0  0  0  0  0
    1.5628    0.9152   -0.7412 H   0  0  0  0  0  0  0  0  0  0  0  0
    0.2715   -1.9041   -1.2906 H   0  0  0  0  0  0  0  0  0  0  0  0
    0.2346   -0.4394   -2.4397 H   0  0  0  0  0  0  0  0  0  0  0  0
   -1.7853    1.2880   -1.5620 H   0  0  0  0  0  0  0  0  0  0  0  0
   -0.6463    2.1544   -0.3432 H   0  0  0  0  0  0  0  0  0  0  0  0
   -3.1709    0.7517    0.4315 H   0  0  0  0  0  0  0  0  0  0  0  0
   -1.8111   -1.4003    0.6796 H   0  0  0  0  0  0  0  0  0  0  0  0
  1  2  1  0
  2  3  1  0
  3  4  1  0
  4  5  1  0
  5  6  1  0
  6  7  1  0
  7  8  1  0
  8  9  1  0
  5  3  1  0
  9  7  1  0
  9  5  1  0
  1 10  1  0
  2 11  1  0
  2 12  1  0
  3 13  1  0
  4 14  1  0
  4 15  1  0
  6 16  1  0
  6 17  1  0
  7 18  1  0
  9 19  1  0
M  END
