
     RDKit          3D

 19 20  0  0  0  0  0  0  0  0999 V2000
    2.8735   -0.7344    0.3181 O   0  0  0  0  0  0  0  0  0  0  0  0
    1.8434   -0.0083   -0.2353 C   0  0  0  0  0  0  0  0  0  0  0  0
    0.5448   -0.1639    0.5655 C   0  0  0  0  0  0  0  0  0  0  0  0
    0.1781   -1.5050    0.5850 O   0  0  0  0  0  0  0  0  0  0  0  0
   -1.1852   -1.5667    0.3635 C   0  0  0  0  0  0  0  0  0  0  0  0
   -1.3601   -0.5193   -0.7450 C   0  0  0  0  0  0  0  0  0  0  0  0
   -0.5133    0.5989   -0.1423 C   0  0  0  0  0  0  0  0  0  0  0  0
   -1.0718    1.8200    0.1759 C   0  0  0  0  0  0  0  0  0  0  0  0
   -0.1658    1.6786   -0.9037 O   0  0  0  0  0  0  0  0  0  0  0  0
    3.6988   -0.1794    0.3653 H   0  0  0  0  0  0  0  0  0  0  0  0
    1.6894   -0.3426   -1.2796 H   0  0  0  0  0  0  0  0  0  0  0  0
    2.0878    1.0764   -0.2639 H   0  0  0  0  0  0  0  0  0  0  0  0
    0.7464    0.1557    1.5921 H   0  0  0  0  0  0  0  0  0  0  0  0
   -1.4849   -2.5644    0.0338 H   0  0  0  0  0  0  0  0  0  0  0  0
   -1.7844   -1.1856    1.2310 H   0  0  0  0  0  0  0  0  0  0  0  0
   -2.4059   -0.2496   -0.8614 H   0  0  0  0  0  0  0  0  0  0  0  0
   -0.8524   -0.8695   -1.6530 H   0  0  0  0  0  0  0  0  0  0  0  0
   -2.0927    2.1063   -0.1766 H   0  0  0  0  0  0  0  0  0  0  0  0
   -0.7455    2.4528    1.0305 H   0  0  0  0  0  0  0  0  0  0  0  0
  1  2  1  0
  2  3  1  0
  3  4  1  0
  4  5  1  0
  5  6  1  0
  6  7  1  0
  7  8  1  0
  8  9  1  0
  7  3  1  0
  9  7  1  0
  1 10  1  0
  2 11  1  0
  2 12  1  0
  3 13  1  0
  5 14  1  0
  5 15  1  0
  6 16  1  0
  6 17  1  0
  8 18  1  0
  8 19  1  0
M  END
