
     RDKit          3D

 19 20  0  0  0  0  0  0  0  0999 V2000
    2.4367    0.3130   -0.6685 O   0  0  0  0  0  0  0  0  0  0  0  0
    1.6729    0.2977    0.4792 C   0  0  0  0  0  0  0  0  0  0  0  0
    0.3365   -0.3203    0.1999 C   0  0  0  0  0  0  0  0  0  0  0  0
   -0.5952   -0.4096    1.3270 C   0  0  0  0  0  0  0  0  0  0  0  0
   -1.7092    0.2422    1.1110 C   0  0  0  0  0  0  0  0  0  0  0  0
   -1.7062    0.8957   -0.2392 C   0  0  0  0  0  0  0  0  0  0  0  0
   -0.4846    0.3284   -0.8760 C   0  0  0  0  0  0  0  0  0  0  0  0
   -0.7571   -0.9625   -1.3752 O   0  0  0  0  0  0  0  0  0  0  0  0
    0.3878   -1.4679   -0.7499 C   0  0  0  0  0  0  0  0  0  0  0  0
    2.3848    1.1672   -1.1690 H   0  0  0  0  0  0  0  0  0  0  0  0
    2.1959   -0.3766    1.2056 H   0  0  0  0  0  0  0  0  0  0  0  0
    1.5805    1.2823    0.9620 H   0  0  0  0  0  0  0  0  0  0  0  0
   -0.3898   -0.9550    2.2433 H   0  0  0  0  0  0  0  0  0  0  0  0
   -2.5519    0.3148    1.8144 H   0  0  0  0  0  0  0  0  0  0  0  0
   -1.7043    1.9970   -0.1433 H   0  0  0  0  0  0  0  0  0  0  0  0
   -2.6525    0.5758   -0.7478 H   0  0  0  0  0  0  0  0  0  0  0  0
    0.0360    0.9191   -1.6254 H   0  0  0  0  0  0  0  0  0  0  0  0
    1.2572   -1.3629   -1.4353 H   0  0  0  0  0  0  0  0  0  0  0  0
    0.2625   -2.4784   -0.3127 H   0  0  0  0  0  0  0  0  0  0  0  0
  1  2  1  0
  2  3  1  0
  3  4  1  0
  4  5  2  0
  5  6  1  0
  6  7  1  0
  7  8  1  0
  8  9  1  0
  7  3  1  0
  9  3  1  0
  1 10  1  0
  2 11  1  0
  2 12  1  0
  4 13  1  0
  5 14  1  0
  6 15  1  0
  6 16  1  0
  7 17  1  0
  9 18  1  0
  9 19  1  0
M  END
