
     RDKit          3D

 19 20  0  0  0  0  0  0  0  0999 V2000
    2.0245    0.9939    0.8240 O   0  0  0  0  0  0  0  0  0  0  0  0
    2.3205   -0.2710    0.3425 C   0  0  0  0  0  0  0  0  0  0  0  0
    1.1043   -0.9053   -0.2899 C   0  0  0  0  0  0  0  0  0  0  0  0
    0.5641   -0.1360   -1.4258 O   0  0  0  0  0  0  0  0  0  0  0  0
   -0.1628   -0.4075   -0.1561 C   0  0  0  0  0  0  0  0  0  0  0  0
   -0.6563    0.8605    0.4286 C   0  0  0  0  0  0  0  0  0  0  0  0
   -2.0878    0.9209   -0.0099 C   0  0  0  0  0  0  0  0  0  0  0  0
   -2.3147   -0.1904   -0.8165 O   0  0  0  0  0  0  0  0  0  0  0  0
   -1.4380   -1.1724   -0.4281 C   0  0  0  0  0  0  0  0  0  0  0  0
    2.3254    1.6476    0.1496 H   0  0  0  0  0  0  0  0  0  0  0  0
    2.7187   -0.9172    1.1581 H   0  0  0  0  0  0  0  0  0  0  0  0
    3.1516   -0.1723   -0.3983 H   0  0  0  0  0  0  0  0  0  0  0  0
    1.2948   -1.9401   -0.6450 H   0  0  0  0  0  0  0  0  0  0  0  0
   -0.6568    0.7464    1.5465 H   0  0  0  0  0  0  0  0  0  0  0  0
   -0.0666    1.7438    0.1136 H   0  0  0  0  0  0  0  0  0  0  0  0
   -2.3124    1.8768   -0.5570 H   0  0  0  0  0  0  0  0  0  0  0  0
   -2.8147    0.8748    0.8258 H   0  0  0  0  0  0  0  0  0  0  0  0
   -1.2604   -1.9140   -1.2086 H   0  0  0  0  0  0  0  0  0  0  0  0
   -1.7332   -1.6386    0.5466 H   0  0  0  0  0  0  0  0  0  0  0  0
  1  2  1  0
  2  3  1  0
  3  4  1  0
  4  5  1  0
  5  6  1  0
  6  7  1  0
  7  8  1  0
  8  9  1  0
  5  3  1  0
  9  5  1  0
  1 10  1  0
  2 11  1  0
  2 12  1  0
  3 13  1  0
  6 14  1  0
  6 15  1  0
  7 16  1  0
  7 17  1  0
  9 18  1  0
  9 19  1  0
M  END
