
     RDKit          3D

 18 18  0  0  0  0  0  0  0  0999 V2000
    2.7871   -0.5111    0.1905 O   0  0  0  0  0  0  0  0  0  0  0  0
    1.9968    0.4697   -0.4188 C   0  0  0  0  0  0  0  0  0  0  0  0
    0.5867    0.2663    0.0953 C   0  0  0  0  0  0  0  0  0  0  0  0
    0.1225   -1.0911   -0.3119 C   0  0  0  0  0  0  0  0  0  0  0  0
   -1.2001   -1.3236   -0.2713 O   0  0  0  0  0  0  0  0  0  0  0  0
   -2.0506   -0.3172   -0.0136 C   0  0  0  0  0  0  0  0  0  0  0  0
   -1.4790    1.0085    0.3012 C   0  0  0  0  0  0  0  0  0  0  0  0
   -0.2991    1.2017   -0.4533 O   0  0  0  0  0  0  0  0  0  0  0  0
    2.3451   -0.8735    1.0127 H   0  0  0  0  0  0  0  0  0  0  0  0
    2.3556    1.4832   -0.2521 H   0  0  0  0  0  0  0  0  0  0  0  0
    1.9603    0.2513   -1.5179 H   0  0  0  0  0  0  0  0  0  0  0  0
    0.5470    0.4094    1.2005 H   0  0  0  0  0  0  0  0  0  0  0  0
    0.6438   -1.8418    0.3408 H   0  0  0  0  0  0  0  0  0  0  0  0
    0.4921   -1.2666   -1.3648 H   0  0  0  0  0  0  0  0  0  0  0  0
   -2.7147   -0.6187    0.8475 H   0  0  0  0  0  0  0  0  0  0  0  0
   -2.7669   -0.1911   -0.8718 H   0  0  0  0  0  0  0  0  0  0  0  0
   -1.1506    1.1100    1.3689 H   0  0  0  0  0  0  0  0  0  0  0  0
   -2.1759    1.8345    0.1184 H   0  0  0  0  0  0  0  0  0  0  0  0
  1  2  1  0
  2  3  1  0
  3  4  1  0
  4  5  1  0
  5  6  1  0
  6  7  1  0
  7  8  1  0
  8  3  1  0
  1  9  1  0
  2 10  1  0
  2 11  1  0
  3 12  1  0
  4 13  1  0
  4 14  1  0
  6 15  1  0
  6 16  1  0
  7 17  1  0
  7 18  1  0
M  END
