
     RDKit          3D

 21 22  0  0  0  0  0  0  0  0999 V2000
    2.8299   -1.2728    0.2685 O   0  0  0  0  0  0  0  0  0  0  0  0
    2.4036    0.0215    0.0471 C   0  0  0  0  0  0  0  0  0  0  0  0
    0.9501    0.0684   -0.1612 C   0  0  0  0  0  0  0  0  0  0  0  0
    0.2272   -1.0421   -0.1228 C   0  0  0  0  0  0  0  0  0  0  0  0
   -1.2365   -0.9895   -0.3332 C   0  0  0  0  0  0  0  0  0  0  0  0
   -2.0931   -0.9704    0.8993 C   0  0  0  0  0  0  0  0  0  0  0  0
   -1.8933    0.2453    0.0954 C   0  0  0  0  0  0  0  0  0  0  0  0
   -0.9742    1.3500    0.5314 C   0  0  0  0  0  0  0  0  0  0  0  0
    0.2128    1.3320   -0.4220 C   0  0  0  0  0  0  0  0  0  0  0  0
    3.7810   -1.3352   -0.0013 H   0  0  0  0  0  0  0  0  0  0  0  0
    2.7494    0.6507    0.8912 H   0  0  0  0  0  0  0  0  0  0  0  0
    2.8840    0.3561   -0.9112 H   0  0  0  0  0  0  0  0  0  0  0  0
    0.6950   -2.0020    0.0625 H   0  0  0  0  0  0  0  0  0  0  0  0
   -1.6060   -1.4741   -1.2631 H   0  0  0  0  0  0  0  0  0  0  0  0
   -3.0670   -1.5140    0.7621 H   0  0  0  0  0  0  0  0  0  0  0  0
   -1.6117   -1.1682    1.8528 H   0  0  0  0  0  0  0  0  0  0  0  0
   -2.7768    0.6162   -0.4982 H   0  0  0  0  0  0  0  0  0  0  0  0
   -0.6688    1.2843    1.5803 H   0  0  0  0  0  0  0  0  0  0  0  0
   -1.4455    2.3646    0.3949 H   0  0  0  0  0  0  0  0  0  0  0  0
   -0.2073    1.2479   -1.4602 H   0  0  0  0  0  0  0  0  0  0  0  0
    0.8471    2.2315   -0.2989 H   0  0  0  0  0  0  0  0  0  0  0  0
  1  2  1  0
  2  3  1  0
  3  4  2  0
  4  5  1  0
  5  6  1  0
  6  7  1  0
  7  8  1  0
  8  9  1  0
  9  3  1  0
  7  5  1  0
  1 10  1  0
  2 11  1  0
  2 12  1  0
  4 13  1  0
  5 14  1  0
  6 15  1  0
  6 16  1  0
  7 17  1  0
  8 18  1  0
  8 19  1  0
  9 20  1  0
  9 21  1  0
M  END
