
     RDKit          3D

 21 22  0  0  0  0  0  0  0  0999 V2000
   -2.3690   -1.5784    0.2972 O   0  0  0  0  0  0  0  0  0  0  0  0
   -2.0721   -0.3561   -0.2843 C   0  0  0  0  0  0  0  0  0  0  0  0
   -0.7951    0.2428    0.2649 C   0  0  0  0  0  0  0  0  0  0  0  0
   -0.5867    1.5713   -0.4515 C   0  0  0  0  0  0  0  0  0  0  0  0
    0.9030    1.7139   -0.4288 C   0  0  0  0  0  0  0  0  0  0  0  0
    1.5127    0.5727   -0.2402 C   0  0  0  0  0  0  0  0  0  0  0  0
    2.4289   -0.5575   -0.0438 C   0  0  0  0  0  0  0  0  0  0  0  0
    1.3358   -1.0495    0.9357 C   0  0  0  0  0  0  0  0  0  0  0  0
    0.4362   -0.5047   -0.1461 C   0  0  0  0  0  0  0  0  0  0  0  0
   -3.2332   -1.5336    0.7837 H   0  0  0  0  0  0  0  0  0  0  0  0
   -2.0250   -0.5011   -1.3818 H   0  0  0  0  0  0  0  0  0  0  0  0
   -2.8854    0.3807   -0.0572 H   0  0  0  0  0  0  0  0  0  0  0  0
   -0.8355    0.3256    1.3443 H   0  0  0  0  0  0  0  0  0  0  0  0
   -1.1013    2.3367    0.1342 H   0  0  0  0  0  0  0  0  0  0  0  0
   -0.8931    1.4872   -1.4980 H   0  0  0  0  0  0  0  0  0  0  0  0
    1.3498    2.7186   -0.5657 H   0  0  0  0  0  0  0  0  0  0  0  0
    3.3928   -0.3677    0.4236 H   0  0  0  0  0  0  0  0  0  0  0  0
    2.4195   -1.2485   -0.9053 H   0  0  0  0  0  0  0  0  0  0  0  0
    1.3362   -2.1306    1.0718 H   0  0  0  0  0  0  0  0  0  0  0  0
    1.3203   -0.4103    1.8133 H   0  0  0  0  0  0  0  0  0  0  0  0
    0.3611   -1.1115   -1.0662 H   0  0  0  0  0  0  0  0  0  0  0  0
  1  2  1  0
  2  3  1  0
  3  4  1  0
  4  5  1  0
  5  6  2  0
  6  7  1  0
  7  8  1  0
  8  9  1  0
  9  3  1  0
  9  6  1  0
  1 10  1  0
  2 11  1  0
  2 12  1  0
  3 13  1  0
  4 14  1  0
  4 15  1  0
  5 16  1  0
  7 17  1  0
  7 18  1  0
  8 19  1  0
  8 20  1  0
  9 21  1  0
M  END
