
     RDKit          3D

 19 20  0  0  0  0  0  0  0  0999 V2000
    3.3185    0.2358    0.6707 O   0  0  0  0  0  0  0  0  0  0  0  0
    2.2755   -0.5501    1.1187 C   0  0  0  0  0  0  0  0  0  0  0  0
    1.2080   -0.6354    0.0599 C   0  0  0  0  0  0  0  0  0  0  0  0
    0.2564    0.5598    0.0259 C   0  0  0  0  0  0  0  0  0  0  0  0
   -0.6539   -0.5773   -0.4031 C   0  0  0  0  0  0  0  0  0  0  0  0
   -2.0941   -0.4082    0.0117 C   0  0  0  0  0  0  0  0  0  0  0  0
   -2.6633    0.9394    0.1719 C   0  0  0  0  0  0  0  0  0  0  0  0
   -2.3940    0.1177    1.2450 O   0  0  0  0  0  0  0  0  0  0  0  0
    0.1063   -1.4113    0.4175 O   0  0  0  0  0  0  0  0  0  0  0  0
    2.9993    1.1697    0.5078 H   0  0  0  0  0  0  0  0  0  0  0  0
    1.8856   -0.0929    2.0449 H   0  0  0  0  0  0  0  0  0  0  0  0
    2.6680   -1.5778    1.2672 H   0  0  0  0  0  0  0  0  0  0  0  0
    1.5431   -0.8575   -0.9497 H   0  0  0  0  0  0  0  0  0  0  0  0
    0.4797    1.2970   -0.7636 H   0  0  0  0  0  0  0  0  0  0  0  0
    0.0646    0.9433    1.0325 H   0  0  0  0  0  0  0  0  0  0  0  0
   -0.5127   -0.8397   -1.4498 H   0  0  0  0  0  0  0  0  0  0  0  0
   -2.7504   -1.2239   -0.3497 H   0  0  0  0  0  0  0  0  0  0  0  0
   -2.0281    1.8457    0.0439 H   0  0  0  0  0  0  0  0  0  0  0  0
   -3.7084    1.0657   -0.1953 H   0  0  0  0  0  0  0  0  0  0  0  0
  1  2  1  0
  2  3  1  0
  3  4  1  0
  4  5  1  0
  5  6  1  0
  6  7  1  0
  7  8  1  0
  5  9  1  0
  9  3  1  0
  8  6  1  0
  1 10  1  0
  2 11  1  0
  2 12  1  0
  3 13  1  0
  4 14  1  0
  4 15  1  0
  5 16  1  0
  6 17  1  0
  7 18  1  0
  7 19  1  0
M  END
