
     RDKit          3D

 20 21  0  0  0  0  0  0  0  0999 V2000
    2.8233   -0.0009    0.4448 O   0  0  0  0  0  0  0  0  0  0  0  0
    1.6521    0.6768    0.7695 C   0  0  0  0  0  0  0  0  0  0  0  0
    0.4766    0.1326   -0.0422 C   0  0  0  0  0  0  0  0  0  0  0  0
   -0.8532    0.7870    0.2195 C   0  0  0  0  0  0  0  0  0  0  0  0
   -2.0776    0.3877   -0.4701 C   0  0  0  0  0  0  0  0  0  0  0  0
   -1.9164    0.0243    0.9610 C   0  0  0  0  0  0  0  0  0  0  0  0
    0.4837   -1.3942   -0.1800 C   0  0  0  0  0  0  0  0  0  0  0  0
    0.7087   -0.5027   -1.3502 C   0  0  0  0  0  0  0  0  0  0  0  0
    3.0639    0.1708   -0.4837 H   0  0  0  0  0  0  0  0  0  0  0  0
    1.3835    0.5896    1.8245 H   0  0  0  0  0  0  0  0  0  0  0  0
    1.7584    1.7503    0.5348 H   0  0  0  0  0  0  0  0  0  0  0  0
   -0.7594    1.8805    0.4668 H   0  0  0  0  0  0  0  0  0  0  0  0
   -2.8649    1.1600   -0.6592 H   0  0  0  0  0  0  0  0  0  0  0  0
   -2.1088   -0.4153   -1.2380 H   0  0  0  0  0  0  0  0  0  0  0  0
   -1.8022   -1.0327    1.2031 H   0  0  0  0  0  0  0  0  0  0  0  0
   -2.4680    0.6097    1.7506 H   0  0  0  0  0  0  0  0  0  0  0  0
   -0.4599   -1.9357   -0.0387 H   0  0  0  0  0  0  0  0  0  0  0  0
    1.3739   -1.9379    0.2082 H   0  0  0  0  0  0  0  0  0  0  0  0
    1.7045   -0.5506   -1.8286 H   0  0  0  0  0  0  0  0  0  0  0  0
   -0.1183   -0.3991   -2.0918 H   0  0  0  0  0  0  0  0  0  0  0  0
  1  2  1  0
  2  3  1  0
  3  4  1  0
  4  5  1  0
  5  6  1  0
  3  7  1  0
  7  8  1  0
  8  3  1  0
  6  4  1  0
  1  9  1  0
  2 10  1  0
  2 11  1  0
  4 12  1  0
  5 13  1  0
  5 14  1  0
  6 15  1  0
  6 16  1  0
  7 17  1  0
  7 18  1  0
  8 19  1  0
  8 20  1  0
M  END
