
     RDKit          3D

 19 20  0  0  0  0  0  0  0  0999 V2000
   -2.7770   -0.8862   -0.4035 O   0  0  0  0  0  0  0  0  0  0  0  0
   -1.9794   -0.0443    0.3878 C   0  0  0  0  0  0  0  0  0  0  0  0
   -0.5085   -0.1406   -0.0399 C   0  0  0  0  0  0  0  0  0  0  0  0
   -0.1491    0.7465   -1.1729 C   0  0  0  0  0  0  0  0  0  0  0  0
    0.3185    1.0152    0.2447 C   0  0  0  0  0  0  0  0  0  0  0  0
    1.7877    0.7347    0.4513 C   0  0  0  0  0  0  0  0  0  0  0  0
    2.1772   -0.5160    0.0995 O   0  0  0  0  0  0  0  0  0  0  0  0
    1.3238   -1.5375    0.2957 C   0  0  0  0  0  0  0  0  0  0  0  0
    0.0134   -1.3750    0.0669 O   0  0  0  0  0  0  0  0  0  0  0  0
   -3.0044   -0.4931   -1.2609 H   0  0  0  0  0  0  0  0  0  0  0  0
   -2.3572    0.9759    0.3479 H   0  0  0  0  0  0  0  0  0  0  0  0
   -2.1065   -0.4235    1.4372 H   0  0  0  0  0  0  0  0  0  0  0  0
   -0.8384    1.5024   -1.5776 H   0  0  0  0  0  0  0  0  0  0  0  0
    0.5685    0.3379   -1.9120 H   0  0  0  0  0  0  0  0  0  0  0  0
   -0.0324    1.9242    0.7607 H   0  0  0  0  0  0  0  0  0  0  0  0
    2.3324    1.4555   -0.2245 H   0  0  0  0  0  0  0  0  0  0  0  0
    2.0872    1.0484    1.4825 H   0  0  0  0  0  0  0  0  0  0  0  0
    1.6820   -2.4072   -0.3349 H   0  0  0  0  0  0  0  0  0  0  0  0
    1.4620   -1.9175    1.3519 H   0  0  0  0  0  0  0  0  0  0  0  0
  1  2  1  0
  2  3  1  0
  3  4  1  0
  4  5  1  0
  5  6  1  0
  6  7  1  0
  7  8  1  0
  8  9  1  0
  5  3  1  0
  9  3  1  0
  1 10  1  0
  2 11  1  0
  2 12  1  0
  4 13  1  0
  4 14  1  0
  5 15  1  0
  6 16  1  0
  6 17  1  0
  8 18  1  0
  8 19  1  0
M  END
