
     RDKit          3D

 16 17  0  0  0  0  0  0  0  0999 V2000
    2.7236    0.1513    0.5637 O   0  0  0  0  0  0  0  0  0  0  0  0
    1.6637   -0.6457    0.0738 C   0  0  0  0  0  0  0  0  0  0  0  0
    0.6833    0.3420   -0.5374 C   0  0  0  0  0  0  0  0  0  0  0  0
    0.2695    1.2140    0.4632 O   0  0  0  0  0  0  0  0  0  0  0  0
   -1.0020    1.1776   -0.0824 C   0  0  0  0  0  0  0  0  0  0  0  0
   -1.7959   -0.0402    0.1760 C   0  0  0  0  0  0  0  0  0  0  0  0
   -1.6711   -0.7571    1.3619 O   0  0  0  0  0  0  0  0  0  0  0  0
   -0.6933   -0.1729   -0.7819 C   0  0  0  0  0  0  0  0  0  0  0  0
    2.6045    0.3346    1.5285 H   0  0  0  0  0  0  0  0  0  0  0  0
    2.1226   -1.2972   -0.6954 H   0  0  0  0  0  0  0  0  0  0  0  0
    1.2273   -1.2029    0.9182 H   0  0  0  0  0  0  0  0  0  0  0  0
    1.1330    0.8322   -1.4141 H   0  0  0  0  0  0  0  0  0  0  0  0
   -1.3828    1.9878   -0.7015 H   0  0  0  0  0  0  0  0  0  0  0  0
   -2.8406   -0.0156   -0.2018 H   0  0  0  0  0  0  0  0  0  0  0  0
   -2.0601   -1.6553    1.1807 H   0  0  0  0  0  0  0  0  0  0  0  0
   -0.9819   -0.2525   -1.8515 H   0  0  0  0  0  0  0  0  0  0  0  0
  1  2  1  0
  2  3  1  0
  3  4  1  0
  4  5  1  0
  5  6  1  0
  6  7  1  0
  6  8  1  0
  8  3  1  0
  8  5  1  0
  1  9  1  0
  2 10  1  0
  2 11  1  0
  3 12  1  0
  5 13  1  0
  6 14  1  0
  7 15  1  0
  8 16  1  0
M  END
