
     RDKit          3D

 18 18  0  0  0  0  0  0  0  0999 V2000
   -1.8531   -0.1224    0.9343 O   0  0  0  0  0  0  0  0  0  0  0  0
   -1.6160    0.1561   -0.3930 C   0  0  0  0  0  0  0  0  0  0  0  0
   -0.1484    0.3176   -0.6971 C   0  0  0  0  0  0  0  0  0  0  0  0
    0.4071    1.4677    0.1371 C   0  0  0  0  0  0  0  0  0  0  0  0
    0.4989    0.8487    1.3936 O   0  0  0  0  0  0  0  0  0  0  0  0
    1.0136   -0.4058    1.1982 C   0  0  0  0  0  0  0  0  0  0  0  0
    0.6791   -0.8377   -0.2085 C   0  0  0  0  0  0  0  0  0  0  0  0
    1.8454   -0.8683   -0.9822 O   0  0  0  0  0  0  0  0  0  0  0  0
   -2.3823   -0.9770    0.9679 H   0  0  0  0  0  0  0  0  0  0  0  0
   -2.0971    1.1396   -0.6664 H   0  0  0  0  0  0  0  0  0  0  0  0
   -2.0523   -0.5924   -1.0931 H   0  0  0  0  0  0  0  0  0  0  0  0
   -0.0041    0.5706   -1.7476 H   0  0  0  0  0  0  0  0  0  0  0  0
   -0.3175    2.2750    0.1012 H   0  0  0  0  0  0  0  0  0  0  0  0
    1.3994    1.7992   -0.2233 H   0  0  0  0  0  0  0  0  0  0  0  0
    0.6321   -1.1412    1.9533 H   0  0  0  0  0  0  0  0  0  0  0  0
    2.1285   -0.4161    1.3222 H   0  0  0  0  0  0  0  0  0  0  0  0
    0.1532   -1.7911   -0.1976 H   0  0  0  0  0  0  0  0  0  0  0  0
    1.7134   -1.4225   -1.7988 H   0  0  0  0  0  0  0  0  0  0  0  0
  1  2  1  0
  2  3  1  0
  3  4  1  0
  4  5  1  0
  5  6  1  0
  6  7  1  0
  7  8  1  0
  7  3  1  0
  1  9  1  0
  2 10  1  0
  2 11  1  0
  3 12  1  0
  4 13  1  0
  4 14  1  0
  6 15  1  0
  6 16  1  0
  7 17  1  0
  8 18  1  0
M  END
