
     RDKit          3D

 19 21  0  0  0  0  0  0  0  0999 V2000
    3.1654    0.9625   -0.1470 O   0  0  0  0  0  0  0  0  0  0  0  0
    2.2358   -0.0598   -0.1956 C   0  0  0  0  0  0  0  0  0  0  0  0
    0.9095    0.3227    0.3669 C   0  0  0  0  0  0  0  0  0  0  0  0
   -0.1209   -0.6790    0.3582 C   0  0  0  0  0  0  0  0  0  0  0  0
   -1.4101   -0.2501    1.0803 C   0  0  0  0  0  0  0  0  0  0  0  0
   -2.7229   -0.0561    0.4648 C   0  0  0  0  0  0  0  0  0  0  0  0
   -1.6504    0.0319   -0.4473 C   0  0  0  0  0  0  0  0  0  0  0  0
   -0.3072    0.6549   -0.3993 C   0  0  0  0  0  0  0  0  0  0  0  0
    0.1354    0.8119   -1.7396 O   0  0  0  0  0  0  0  0  0  0  0  0
    3.5821    0.9151    0.7694 H   0  0  0  0  0  0  0  0  0  0  0  0
    2.6163   -0.9305    0.3954 H   0  0  0  0  0  0  0  0  0  0  0  0
    2.0753   -0.4075   -1.2558 H   0  0  0  0  0  0  0  0  0  0  0  0
    1.0251    0.9045    1.3337 H   0  0  0  0  0  0  0  0  0  0  0  0
   -0.1760   -1.5399   -0.3141 H   0  0  0  0  0  0  0  0  0  0  0  0
   -1.2318    0.5924    1.7674 H   0  0  0  0  0  0  0  0  0  0  0  0
   -3.3480    0.8780    0.5882 H   0  0  0  0  0  0  0  0  0  0  0  0
   -3.3966   -0.9438    0.5983 H   0  0  0  0  0  0  0  0  0  0  0  0
   -1.5874   -0.9434   -1.0531 H   0  0  0  0  0  0  0  0  0  0  0  0
    0.2064   -0.0979   -2.1707 H   0  0  0  0  0  0  0  0  0  0  0  0
  1  2  1  0
  2  3  1  0
  3  4  1  0
  4  5  1  0
  5  6  1  0
  6  7  1  0
  7  8  1  0
  8  9  1  0
  8  3  1  0
  8  4  1  0
  7  5  1  0
  1 10  1  0
  2 11  1  0
  2 12  1  0
  3 13  1  0
  4 14  1  0
  5 15  1  0
  6 16  1  0
  6 17  1  0
  7 18  1  0
  9 19  1  0
M  END
