
     RDKit          3D

 17 19  0  0  0  0  0  0  0  0999 V2000
   -2.5245   -0.1181   -0.7850 O   0  0  0  0  0  0  0  0  0  0  0  0
   -1.8334    0.0711    0.4369 C   0  0  0  0  0  0  0  0  0  0  0  0
   -0.3966    0.1357    0.1256 C   0  0  0  0  0  0  0  0  0  0  0  0
    0.1612    1.1747   -0.7778 C   0  0  0  0  0  0  0  0  0  0  0  0
    1.4798    1.0621   -0.7853 C   0  0  0  0  0  0  0  0  0  0  0  0
    1.9122   -0.0618    0.1135 C   0  0  0  0  0  0  0  0  0  0  0  0
    1.5937   -1.2694   -0.4551 O   0  0  0  0  0  0  0  0  0  0  0  0
    0.2905   -1.2289    0.0210 C   0  0  0  0  0  0  0  0  0  0  0  0
    0.7074   -0.1968    0.9992 C   0  0  0  0  0  0  0  0  0  0  0  0
   -2.1629   -0.9768   -1.1738 H   0  0  0  0  0  0  0  0  0  0  0  0
   -2.2576    1.0278    0.8495 H   0  0  0  0  0  0  0  0  0  0  0  0
   -2.0671   -0.7918    1.0595 H   0  0  0  0  0  0  0  0  0  0  0  0
   -0.4366    1.8833   -1.3191 H   0  0  0  0  0  0  0  0  0  0  0  0
    2.1316    1.7123   -1.3744 H   0  0  0  0  0  0  0  0  0  0  0  0
    2.8799    0.0577    0.5839 H   0  0  0  0  0  0  0  0  0  0  0  0
   -0.2115   -2.1067    0.4335 H   0  0  0  0  0  0  0  0  0  0  0  0
    0.7338   -0.3744    2.0480 H   0  0  0  0  0  0  0  0  0  0  0  0
  1  2  1  0
  2  3  1  0
  3  4  1  0
  4  5  2  0
  5  6  1  0
  6  7  1  0
  7  8  1  0
  8  9  1  0
  8  3  1  0
  9  3  1  0
  9  6  1  0
  1 10  1  0
  2 11  1  0
  2 12  1  0
  4 13  1  0
  5 14  1  0
  6 15  1  0
  8 16  1  0
  9 17  1  0
M  END
