
     RDKit          3D

 15 16  0  0  0  0  0  0  0  0999 V2000
    1.6964    1.1469   -0.2724 O   0  0  0  0  0  0  0  0  0  0  0  0
    1.4472   -0.1725    0.0494 C   0  0  0  0  0  0  0  0  0  0  0  0
    0.1426   -0.7289   -0.4037 C   0  0  0  0  0  0  0  0  0  0  0  0
   -0.9138   -0.7484    0.6397 C   0  0  0  0  0  0  0  0  0  0  0  0
   -1.0652    0.7194    0.1963 C   0  0  0  0  0  0  0  0  0  0  0  0
   -0.9022    0.1186   -1.1333 C   0  0  0  0  0  0  0  0  0  0  0  0
    0.0391   -0.6275   -1.7146 O   0  0  0  0  0  0  0  0  0  0  0  0
    2.2659    1.5515    0.4301 H   0  0  0  0  0  0  0  0  0  0  0  0
    2.2368   -0.7554   -0.5223 H   0  0  0  0  0  0  0  0  0  0  0  0
    1.6932   -0.4117    1.1089 H   0  0  0  0  0  0  0  0  0  0  0  0
   -1.7958   -1.3318    0.3513 H   0  0  0  0  0  0  0  0  0  0  0  0
   -0.5246   -0.8528    1.6458 H   0  0  0  0  0  0  0  0  0  0  0  0
   -0.3440    1.3804    0.6459 H   0  0  0  0  0  0  0  0  0  0  0  0
   -2.0848    1.1125    0.3841 H   0  0  0  0  0  0  0  0  0  0  0  0
   -1.8907   -0.4004   -1.4051 H   0  0  0  0  0  0  0  0  0  0  0  0
  1  2  1  0
  2  3  1  0
  3  4  1  0
  4  5  1  0
  5  6  1  0
  6  7  1  0
  6  3  1  0
  7  3  1  0
  1  8  1  0
  2  9  1  0
  2 10  1  0
  4 11  1  0
  4 12  1  0
  5 13  1  0
  5 14  1  0
  6 15  1  0
M  END
