
     RDKit          3D

 23 24  0  0  0  0  0  0  0  0999 V2000
    2.4376   -1.6267    0.3102 O   0  0  0  0  0  0  0  0  0  0  0  0
    1.5238   -0.9489   -0.4908 C   0  0  0  0  0  0  0  0  0  0  0  0
    1.1049    0.3362    0.1514 C   0  0  0  0  0  0  0  0  0  0  0  0
    0.1272    1.1839   -0.5787 C   0  0  0  0  0  0  0  0  0  0  0  0
   -0.9342    0.3829   -1.2882 C   0  0  0  0  0  0  0  0  0  0  0  0
   -1.6328   -0.5740   -0.3911 C   0  0  0  0  0  0  0  0  0  0  0  0
   -1.0024   -0.7640    0.9469 C   0  0  0  0  0  0  0  0  0  0  0  0
    0.0833    0.2209    1.2540 C   0  0  0  0  0  0  0  0  0  0  0  0
   -0.4250    1.5941    0.7970 C   0  0  0  0  0  0  0  0  0  0  0  0
    3.3554   -1.5861   -0.0207 H   0  0  0  0  0  0  0  0  0  0  0  0
    0.7106   -1.6039   -0.7836 H   0  0  0  0  0  0  0  0  0  0  0  0
    2.0868   -0.6719   -1.4286 H   0  0  0  0  0  0  0  0  0  0  0  0
    1.9689    0.9302    0.4973 H   0  0  0  0  0  0  0  0  0  0  0  0
    0.4775    2.0752   -1.0902 H   0  0  0  0  0  0  0  0  0  0  0  0
   -0.4782   -0.1319   -2.1447 H   0  0  0  0  0  0  0  0  0  0  0  0
   -1.6427    1.1397   -1.7359 H   0  0  0  0  0  0  0  0  0  0  0  0
   -2.7148   -0.2609   -0.3225 H   0  0  0  0  0  0  0  0  0  0  0  0
   -1.6879   -1.5980   -0.8662 H   0  0  0  0  0  0  0  0  0  0  0  0
   -1.8115   -0.5970    1.7169 H   0  0  0  0  0  0  0  0  0  0  0  0
   -0.6438   -1.7966    1.1355 H   0  0  0  0  0  0  0  0  0  0  0  0
    0.4423    0.1678    2.2709 H   0  0  0  0  0  0  0  0  0  0  0  0
   -1.5059    1.7035    0.7963 H   0  0  0  0  0  0  0  0  0  0  0  0
    0.1610    2.4255    1.2650 H   0  0  0  0  0  0  0  0  0  0  0  0
  1  2  1  0
  2  3  1  0
  3  4  1  0
  4  5  1  0
  5  6  1  0
  6  7  1  0
  7  8  1  0
  8  9  1  0
  8  3  1  0
  9  4  1  0
  1 10  1  0
  2 11  1  0
  2 12  1  0
  3 13  1  0
  4 14  1  0
  5 15  1  0
  5 16  1  0
  6 17  1  0
  6 18  1  0
  7 19  1  0
  7 20  1  0
  8 21  1  0
  9 22  1  0
  9 23  1  0
M  END
