
     RDKit          3D

 21 21  0  0  0  0  0  0  0  0999 V2000
    3.0770    0.1224    0.9005 O   0  0  0  0  0  0  0  0  0  0  0  0
    2.4478    0.1030   -0.3464 C   0  0  0  0  0  0  0  0  0  0  0  0
    0.9946    0.1726   -0.1212 C   0  0  0  0  0  0  0  0  0  0  0  0
    0.3510    1.2028   -0.6486 C   0  0  0  0  0  0  0  0  0  0  0  0
   -1.0546    1.5833   -0.6274 C   0  0  0  0  0  0  0  0  0  0  0  0
   -2.0535    0.8149   -0.2445 C   0  0  0  0  0  0  0  0  0  0  0  0
   -2.1113   -0.5485    0.2446 C   0  0  0  0  0  0  0  0  0  0  0  0
   -0.9188   -1.3956    0.0484 C   0  0  0  0  0  0  0  0  0  0  0  0
    0.3498   -0.9034    0.6725 C   0  0  0  0  0  0  0  0  0  0  0  0
    2.6010    0.8031    1.4390 H   0  0  0  0  0  0  0  0  0  0  0  0
    2.7151   -0.8416   -0.8486 H   0  0  0  0  0  0  0  0  0  0  0  0
    2.7959    0.9583   -0.9262 H   0  0  0  0  0  0  0  0  0  0  0  0
    0.9704    1.9091   -1.2065 H   0  0  0  0  0  0  0  0  0  0  0  0
   -1.3031    2.6037   -0.9610 H   0  0  0  0  0  0  0  0  0  0  0  0
   -3.0087    1.3176   -0.3166 H   0  0  0  0  0  0  0  0  0  0  0  0
   -2.3691   -0.5058    1.3439 H   0  0  0  0  0  0  0  0  0  0  0  0
   -2.9791   -1.0585   -0.2237 H   0  0  0  0  0  0  0  0  0  0  0  0
   -1.1254   -2.3985    0.4785 H   0  0  0  0  0  0  0  0  0  0  0  0
   -0.7130   -1.5707   -1.0286 H   0  0  0  0  0  0  0  0  0  0  0  0
    1.0726   -1.7714    0.6598 H   0  0  0  0  0  0  0  0  0  0  0  0
    0.2615   -0.5969    1.7123 H   0  0  0  0  0  0  0  0  0  0  0  0
  1  2  1  0
  2  3  1  0
  3  4  2  0
  4  5  1  0
  5  6  2  0
  6  7  1  0
  7  8  1  0
  8  9  1  0
  9  3  1  0
  1 10  1  0
  2 11  1  0
  2 12  1  0
  4 13  1  0
  5 14  1  0
  6 15  1  0
  7 16  1  0
  7 17  1  0
  8 18  1  0
  8 19  1  0
  9 20  1  0
  9 21  1  0
M  END
