
     RDKit          3D

 21 22  0  0  0  0  0  0  0  0999 V2000
    2.7158    0.8235   -1.6356 O   0  0  0  0  0  0  0  0  0  0  0  0
    2.4603    0.4076   -0.3333 C   0  0  0  0  0  0  0  0  0  0  0  0
    1.3626   -0.6260   -0.2720 C   0  0  0  0  0  0  0  0  0  0  0  0
    1.1814   -0.9900    1.1592 O   0  0  0  0  0  0  0  0  0  0  0  0
    0.1304   -0.4499    0.4052 C   0  0  0  0  0  0  0  0  0  0  0  0
   -0.4371    0.8789    0.8020 C   0  0  0  0  0  0  0  0  0  0  0  0
   -1.9234    0.8321    0.5378 C   0  0  0  0  0  0  0  0  0  0  0  0
   -2.2741   -0.5808    0.1829 C   0  0  0  0  0  0  0  0  0  0  0  0
   -1.0093   -1.3804    0.1709 C   0  0  0  0  0  0  0  0  0  0  0  0
    3.2361    1.6841   -1.5562 H   0  0  0  0  0  0  0  0  0  0  0  0
    3.4171   -0.0647    0.0363 H   0  0  0  0  0  0  0  0  0  0  0  0
    2.2608    1.2873    0.2893 H   0  0  0  0  0  0  0  0  0  0  0  0
    1.5497   -1.5169   -0.9043 H   0  0  0  0  0  0  0  0  0  0  0  0
   -0.0144    1.6473    0.1067 H   0  0  0  0  0  0  0  0  0  0  0  0
   -0.2026    1.1367    1.8510 H   0  0  0  0  0  0  0  0  0  0  0  0
   -2.4342    1.1284    1.4672 H   0  0  0  0  0  0  0  0  0  0  0  0
   -2.2313    1.5088   -0.2819 H   0  0  0  0  0  0  0  0  0  0  0  0
   -3.0156   -0.9867    0.9209 H   0  0  0  0  0  0  0  0  0  0  0  0
   -2.8147   -0.6189   -0.8085 H   0  0  0  0  0  0  0  0  0  0  0  0
   -1.0620   -2.1211    1.0186 H   0  0  0  0  0  0  0  0  0  0  0  0
   -0.8955   -1.9993   -0.7458 H   0  0  0  0  0  0  0  0  0  0  0  0
  1  2  1  0
  2  3  1  0
  3  4  1  0
  4  5  1  0
  5  6  1  0
  6  7  1  0
  7  8  1  0
  8  9  1  0
  5  3  1  0
  9  5  1  0
  1 10  1  0
  2 11  1  0
  2 12  1  0
  3 13  1  0
  6 14  1  0
  6 15  1  0
  7 16  1  0
  7 17  1  0
  8 18  1  0
  8 19  1  0
  9 20  1  0
  9 21  1  0
M  END
