
     RDKit          3D

 21 22  0  0  0  0  0  0  0  0999 V2000
   -2.1294   -0.6742   -1.6411 O   0  0  0  0  0  0  0  0  0  0  0  0
   -1.8760   -0.8184   -0.2943 C   0  0  0  0  0  0  0  0  0  0  0  0
   -0.5433   -0.2918    0.1366 C   0  0  0  0  0  0  0  0  0  0  0  0
   -0.3249    1.1554   -0.1127 C   0  0  0  0  0  0  0  0  0  0  0  0
   -0.9877    1.9997    0.7405 O   0  0  0  0  0  0  0  0  0  0  0  0
    1.1918    1.2575    0.0945 C   0  0  0  0  0  0  0  0  0  0  0  0
    1.7024    0.0695   -0.6443 C   0  0  0  0  0  0  0  0  0  0  0  0
    1.7928   -1.2717   -0.0051 C   0  0  0  0  0  0  0  0  0  0  0  0
    0.5369   -0.9401   -0.7000 C   0  0  0  0  0  0  0  0  0  0  0  0
   -3.0963   -0.8958   -1.7756 H   0  0  0  0  0  0  0  0  0  0  0  0
   -2.7201   -0.4033    0.2920 H   0  0  0  0  0  0  0  0  0  0  0  0
   -1.8765   -1.9167   -0.0765 H   0  0  0  0  0  0  0  0  0  0  0  0
   -0.4131   -0.5305    1.2072 H   0  0  0  0  0  0  0  0  0  0  0  0
   -0.4998    1.3960   -1.1874 H   0  0  0  0  0  0  0  0  0  0  0  0
   -0.5740    2.9000    0.6934 H   0  0  0  0  0  0  0  0  0  0  0  0
    1.3797    1.1006    1.1739 H   0  0  0  0  0  0  0  0  0  0  0  0
    1.5846    2.2167   -0.2479 H   0  0  0  0  0  0  0  0  0  0  0  0
    2.2738    0.2370   -1.5766 H   0  0  0  0  0  0  0  0  0  0  0  0
    2.5366   -1.9601   -0.4417 H   0  0  0  0  0  0  0  0  0  0  0  0
    1.7399   -1.3378    1.1161 H   0  0  0  0  0  0  0  0  0  0  0  0
    0.3026   -1.2920   -1.7228 H   0  0  0  0  0  0  0  0  0  0  0  0
  1  2  1  0
  2  3  1  0
  3  4  1  0
  4  5  1  0
  4  6  1  0
  6  7  1  0
  7  8  1  0
  8  9  1  0
  9  3  1  0
  9  7  1  0
  1 10  1  0
  2 11  1  0
  2 12  1  0
  3 13  1  0
  4 14  1  0
  5 15  1  0
  6 16  1  0
  6 17  1  0
  7 18  1  0
  8 19  1  0
  8 20  1  0
  9 21  1  0
M  END
