
     RDKit          3D

 15 15  0  0  0  0  0  0  0  0999 V2000
   -1.9809   -0.1448    1.2275 O   0  0  0  0  0  0  0  0  0  0  0  0
   -0.9049   -0.7754    0.6397 C   0  0  0  0  0  0  0  0  0  0  0  0
   -0.2246    0.0976   -0.4123 C   0  0  0  0  0  0  0  0  0  0  0  0
   -1.0517    0.4710   -1.4600 O   0  0  0  0  0  0  0  0  0  0  0  0
    0.7784    1.0586    0.0493 C   0  0  0  0  0  0  0  0  0  0  0  0
    1.2068   -0.2195   -0.6758 C   0  0  0  0  0  0  0  0  0  0  0  0
    1.8546   -1.1395    0.1236 O   0  0  0  0  0  0  0  0  0  0  0  0
   -2.7392   -0.1290    0.5773 H   0  0  0  0  0  0  0  0  0  0  0  0
   -1.2426   -1.7247    0.2082 H   0  0  0  0  0  0  0  0  0  0  0  0
   -0.1766   -1.0056    1.4444 H   0  0  0  0  0  0  0  0  0  0  0  0
   -1.6665    1.1928   -1.1705 H   0  0  0  0  0  0  0  0  0  0  0  0
    0.9703    1.1187    1.1440 H   0  0  0  0  0  0  0  0  0  0  0  0
    1.0158    1.9947   -0.4913 H   0  0  0  0  0  0  0  0  0  0  0  0
    1.5225   -0.1141   -1.7421 H   0  0  0  0  0  0  0  0  0  0  0  0
    2.6387   -0.6807    0.5380 H   0  0  0  0  0  0  0  0  0  0  0  0
  1  2  1  0
  2  3  1  0
  3  4  1  0
  3  5  1  0
  5  6  1  0
  6  7  1  0
  6  3  1  0
  1  8  1  0
  2  9  1  0
  2 10  1  0
  4 11  1  0
  5 12  1  0
  5 13  1  0
  6 14  1  0
  7 15  1  0
M  END
