
     RDKit          3D

 19 20  0  0  0  0  0  0  0  0999 V2000
    2.4463    0.8362   -0.7963 O   0  0  0  0  0  0  0  0  0  0  0  0
    2.1822   -0.2297    0.0278 C   0  0  0  0  0  0  0  0  0  0  0  0
    0.7147   -0.5727    0.0975 C   0  0  0  0  0  0  0  0  0  0  0  0
    0.2032   -0.9083   -1.1638 O   0  0  0  0  0  0  0  0  0  0  0  0
   -1.1574   -1.0930   -0.8346 C   0  0  0  0  0  0  0  0  0  0  0  0
   -1.4938    0.1835   -0.1454 C   0  0  0  0  0  0  0  0  0  0  0  0
   -2.1981    1.1146   -0.8562 O   0  0  0  0  0  0  0  0  0  0  0  0
   -1.3873    0.3561    1.3164 C   0  0  0  0  0  0  0  0  0  0  0  0
   -0.1469    0.5900    0.4794 C   0  0  0  0  0  0  0  0  0  0  0  0
    2.6733    1.6382   -0.2299 H   0  0  0  0  0  0  0  0  0  0  0  0
    2.5068   -0.0080    1.0674 H   0  0  0  0  0  0  0  0  0  0  0  0
    2.7019   -1.1610   -0.3229 H   0  0  0  0  0  0  0  0  0  0  0  0
    0.5211   -1.4341    0.7587 H   0  0  0  0  0  0  0  0  0  0  0  0
   -1.1709   -1.9071   -0.0874 H   0  0  0  0  0  0  0  0  0  0  0  0
   -1.7144   -1.2969   -1.7482 H   0  0  0  0  0  0  0  0  0  0  0  0
   -1.6697    1.5446   -1.5538 H   0  0  0  0  0  0  0  0  0  0  0  0
   -1.8474    1.2496    1.7433 H   0  0  0  0  0  0  0  0  0  0  0  0
   -1.3381   -0.5264    1.9897 H   0  0  0  0  0  0  0  0  0  0  0  0
    0.1747    1.6243    0.2582 H   0  0  0  0  0  0  0  0  0  0  0  0
  1  2  1  0
  2  3  1  0
  3  4  1  0
  4  5  1  0
  5  6  1  0
  6  7  1  0
  6  8  1  0
  8  9  1  0
  9  3  1  0
  9  6  1  0
  1 10  1  0
  2 11  1  0
  2 12  1  0
  3 13  1  0
  5 14  1  0
  5 15  1  0
  7 16  1  0
  8 17  1  0
  8 18  1  0
  9 19  1  0
M  END
