
     RDKit          2D

 19 21  0  0  0  0  0  0  0  0999 V2000
   -0.0000   -4.0607    0.0000 O   0  0  0  0  0  0  0  0  0  0  0  0
   -0.0000   -2.5607    0.0000 C   0  0  0  0  0  0  0  0  0  0  0  0
   -0.0000   -1.0607    0.0000 C   0  0  0  0  0  0  0  0  0  0  0  0
    0.3607    0.0000    0.0000 C   0  0  0  0  0  0  0  0  0  0  0  0
    0.0000    1.0607    0.0000 C   0  0  0  0  0  0  0  0  0  0  0  0
    0.3393   -0.0000    0.0000 O   0  0  0  0  0  0  0  0  0  0  0  0
   -1.0607    0.0000    0.0000 C   0  0  0  0  0  0  0  0  0  0  0  0
   -2.3597   -0.7500    0.0000 C   0  0  0  0  0  0  0  0  0  0  0  0
   -2.3597    0.7500    0.0000 C   0  0  0  0  0  0  0  0  0  0  0  0
   -1.2990   -4.8107    0.0000 H   0  0  0  0  0  0  0  0  0  0  0  0
    1.5000   -2.5607    0.0000 H   0  0  0  0  0  0  0  0  0  0  0  0
   -1.4888   -2.7435    0.0000 H   0  0  0  0  0  0  0  0  0  0  0  0
    2.1213    1.0607    0.0000 H   0  0  0  0  0  0  0  0  0  0  0  0
    2.1213   -1.0607    0.0000 H   0  0  0  0  0  0  0  0  0  0  0  0
    0.0000    2.5607    0.0000 H   0  0  0  0  0  0  0  0  0  0  0  0
   -2.0223   -2.2116    0.0000 H   0  0  0  0  0  0  0  0  0  0  0  0
   -3.8369   -1.0105    0.0000 H   0  0  0  0  0  0  0  0  0  0  0  0
   -3.8369    1.0105    0.0000 H   0  0  0  0  0  0  0  0  0  0  0  0
   -1.8467    2.1595    0.0000 H   0  0  0  0  0  0  0  0  0  0  0  0
  1  2  1  0
  2  3  1  0
  3  4  1  0
  4  5  1  0
  5  6  1  0
  5  7  1  0
  7  8  1  0
  8  9  1  0
  6  3  1  0
  9  7  1  0
  7  3  1  0
  1 10  1  0
  2 11  1  0
  2 12  1  0
  4 13  1  0
  4 14  1  0
  5 15  1  0
  8 16  1  0
  8 17  1  0
  9 18  1  0
  9 19  1  0
M  END
