
     RDKit          3D

 21 21  0  0  0  0  0  0  0  0999 V2000
   -2.9863   -0.9674   -0.2908 O   0  0  0  0  0  0  0  0  0  0  0  0
   -2.3122    0.1887    0.0411 C   0  0  0  0  0  0  0  0  0  0  0  0
   -0.8453    0.1228   -0.2686 C   0  0  0  0  0  0  0  0  0  0  0  0
   -0.1936    1.3940    0.1136 C   0  0  0  0  0  0  0  0  0  0  0  0
    1.1199    1.4401   -0.0007 C   0  0  0  0  0  0  0  0  0  0  0  0
    1.8572    0.2210   -0.5026 C   0  0  0  0  0  0  0  0  0  0  0  0
    3.2013    0.4300   -0.1899 O   0  0  0  0  0  0  0  0  0  0  0  0
    1.3070   -1.0129    0.1540 C   0  0  0  0  0  0  0  0  0  0  0  0
   -0.1402   -0.9714    0.4873 C   0  0  0  0  0  0  0  0  0  0  0  0
   -3.9318   -0.8429   -0.0061 H   0  0  0  0  0  0  0  0  0  0  0  0
   -2.7439    1.0119   -0.5629 H   0  0  0  0  0  0  0  0  0  0  0  0
   -2.4288    0.4382    1.1026 H   0  0  0  0  0  0  0  0  0  0  0  0
   -0.6496   -0.0291   -1.3512 H   0  0  0  0  0  0  0  0  0  0  0  0
   -0.7777    2.2208    0.4623 H   0  0  0  0  0  0  0  0  0  0  0  0
    1.6320    2.3527    0.2694 H   0  0  0  0  0  0  0  0  0  0  0  0
    1.7365    0.1718   -1.6240 H   0  0  0  0  0  0  0  0  0  0  0  0
    3.7526   -0.3807   -0.3219 H   0  0  0  0  0  0  0  0  0  0  0  0
    1.8739   -1.1948    1.0955 H   0  0  0  0  0  0  0  0  0  0  0  0
    1.4731   -1.9243   -0.4922 H   0  0  0  0  0  0  0  0  0  0  0  0
   -0.2835   -0.7353    1.5813 H   0  0  0  0  0  0  0  0  0  0  0  0
   -0.6607   -1.9331    0.3038 H   0  0  0  0  0  0  0  0  0  0  0  0
  1  2  1  0
  2  3  1  0
  3  4  1  0
  4  5  2  0
  5  6  1  0
  6  7  1  0
  6  8  1  0
  8  9  1  0
  9  3  1  0
  1 10  1  0
  2 11  1  0
  2 12  1  0
  3 13  1  0
  4 14  1  0
  5 15  1  0
  6 16  1  0
  7 17  1  0
  8 18  1  0
  8 19  1  0
  9 20  1  0
  9 21  1  0
M  END
