
     RDKit          3D

 19 20  0  0  0  0  0  0  0  0999 V2000
    1.9520   -0.0633    0.8863 O   0  0  0  0  0  0  0  0  0  0  0  0
    1.6220    0.2344   -0.4313 C   0  0  0  0  0  0  0  0  0  0  0  0
    0.1539    0.0603   -0.7016 C   0  0  0  0  0  0  0  0  0  0  0  0
   -0.2662   -1.3977   -0.4299 C   0  0  0  0  0  0  0  0  0  0  0  0
   -0.9885   -1.2231    0.8517 C   0  0  0  0  0  0  0  0  0  0  0  0
   -2.2267   -0.9690    1.1725 O   0  0  0  0  0  0  0  0  0  0  0  0
   -1.8626   -0.0289    0.3484 C   0  0  0  0  0  0  0  0  0  0  0  0
   -0.6934    0.8905    0.2756 C   0  0  0  0  0  0  0  0  0  0  0  0
   -1.0688    2.0927   -0.2716 O   0  0  0  0  0  0  0  0  0  0  0  0
    2.8599    0.3225    1.0746 H   0  0  0  0  0  0  0  0  0  0  0  0
    1.9072    1.2560   -0.6771 H   0  0  0  0  0  0  0  0  0  0  0  0
    2.1616   -0.4754   -1.0736 H   0  0  0  0  0  0  0  0  0  0  0  0
   -0.0790    0.3707   -1.7175 H   0  0  0  0  0  0  0  0  0  0  0  0
    0.6413   -2.0214   -0.2394 H   0  0  0  0  0  0  0  0  0  0  0  0
   -0.8609   -1.7320   -1.2754 H   0  0  0  0  0  0  0  0  0  0  0  0
   -0.2650   -0.9783    1.6893 H   0  0  0  0  0  0  0  0  0  0  0  0
   -2.3018   -0.1671   -0.6903 H   0  0  0  0  0  0  0  0  0  0  0  0
   -0.1815    0.9767    1.2526 H   0  0  0  0  0  0  0  0  0  0  0  0
   -0.5035    2.8527   -0.0434 H   0  0  0  0  0  0  0  0  0  0  0  0
  1  2  1  0
  2  3  1  0
  3  4  1  0
  4  5  1  0
  5  6  1  0
  6  7  1  0
  7  8  1  0
  8  9  1  0
  8  3  1  0
  7  5  1  0
  1 10  1  0
  2 11  1  0
  2 12  1  0
  3 13  1  0
  4 14  1  0
  4 15  1  0
  5 16  1  0
  7 17  1  0
  8 18  1  0
  9 19  1  0
M  END
