
     RDKit          3D

 16 17  0  0  0  0  0  0  0  0999 V2000
    2.3179   -0.6582   -0.9534 O   0  0  0  0  0  0  0  0  0  0  0  0
    1.6779   -0.3445    0.2471 C   0  0  0  0  0  0  0  0  0  0  0  0
    0.1919   -0.5694    0.1870 C   0  0  0  0  0  0  0  0  0  0  0  0
   -0.4121    0.2841   -0.8838 C   0  0  0  0  0  0  0  0  0  0  0  0
   -1.9039    0.0947   -0.7315 C   0  0  0  0  0  0  0  0  0  0  0  0
   -2.0184    0.2021    0.5914 C   0  0  0  0  0  0  0  0  0  0  0  0
   -0.6030    0.4166    0.9976 C   0  0  0  0  0  0  0  0  0  0  0  0
   -0.2219    1.3630    0.0129 O   0  0  0  0  0  0  0  0  0  0  0  0
    2.9334    0.0649   -1.2182 H   0  0  0  0  0  0  0  0  0  0  0  0
    2.1297   -1.0006    1.0188 H   0  0  0  0  0  0  0  0  0  0  0  0
    1.9277    0.6937    0.5160 H   0  0  0  0  0  0  0  0  0  0  0  0
   -0.1576   -1.5894    0.2940 H   0  0  0  0  0  0  0  0  0  0  0  0
   -0.0027    0.3459   -1.8486 H   0  0  0  0  0  0  0  0  0  0  0  0
   -2.6470   -0.0782   -1.5004 H   0  0  0  0  0  0  0  0  0  0  0  0
   -2.8519    0.1600    1.2687 H   0  0  0  0  0  0  0  0  0  0  0  0
   -0.3600    0.6154    2.0024 H   0  0  0  0  0  0  0  0  0  0  0  0
  1  2  1  0
  2  3  1  0
  3  4  1  0
  4  5  1  0
  5  6  2  0
  6  7  1  0
  7  8  1  0
  7  3  1  0
  8  4  1  0
  1  9  1  0
  2 10  1  0
  2 11  1  0
  3 12  1  0
  4 13  1  0
  5 14  1  0
  6 15  1  0
  7 16  1  0
M  END
