
     RDKit          3D

 22 22  0  0  0  0  0  0  0  0999 V2000
    2.9519    0.6334    0.5930 O   0  0  0  0  0  0  0  0  0  0  0  0
    2.0932   -0.4339    0.4758 C   0  0  0  0  0  0  0  0  0  0  0  0
    0.8400   -0.0445   -0.3231 C   0  0  0  0  0  0  0  0  0  0  0  0
   -0.0489   -1.2505   -0.4118 C   0  0  0  0  0  0  0  0  0  0  0  0
   -1.4763   -0.9555   -0.6834 C   0  0  0  0  0  0  0  0  0  0  0  0
   -2.0476    0.1885    0.0840 C   0  0  0  0  0  0  0  0  0  0  0  0
   -1.1395    1.4060   -0.0538 C   0  0  0  0  0  0  0  0  0  0  0  0
    0.1838    1.0348    0.5274 C   0  0  0  0  0  0  0  0  0  0  0  0
    3.4814    0.8082   -0.2265 H   0  0  0  0  0  0  0  0  0  0  0  0
    2.5518   -1.3549    0.0903 H   0  0  0  0  0  0  0  0  0  0  0  0
    1.7065   -0.6510    1.5128 H   0  0  0  0  0  0  0  0  0  0  0  0
    1.1180    0.3749   -1.2946 H   0  0  0  0  0  0  0  0  0  0  0  0
    0.0247   -1.8006    0.5523 H   0  0  0  0  0  0  0  0  0  0  0  0
    0.3414   -1.8923   -1.2243 H   0  0  0  0  0  0  0  0  0  0  0  0
   -2.0694   -1.8749   -0.4320 H   0  0  0  0  0  0  0  0  0  0  0  0
   -1.6499   -0.7891   -1.7838 H   0  0  0  0  0  0  0  0  0  0  0  0
   -3.0686    0.3830   -0.2425 H   0  0  0  0  0  0  0  0  0  0  0  0
   -2.0400   -0.0999    1.1674 H   0  0  0  0  0  0  0  0  0  0  0  0
   -1.5812    2.1933    0.6058 H   0  0  0  0  0  0  0  0  0  0  0  0
   -1.0382    1.7258   -1.0950 H   0  0  0  0  0  0  0  0  0  0  0  0
   -0.0230    0.5375    1.5194 H   0  0  0  0  0  0  0  0  0  0  0  0
    0.8899    1.8617    0.6427 H   0  0  0  0  0  0  0  0  0  0  0  0
  1  2  1  0
  2  3  1  0
  3  4  1  0
  4  5  1  0
  5  6  1  0
  6  7  1  0
  7  8  1  0
  8  3  1  0
  1  9  1  0
  2 10  1  0
  2 11  1  0
  3 12  1  0
  4 13  1  0
  4 14  1  0
  5 15  1  0
  5 16  1  0
  6 17  1  0
  6 18  1  0
  7 19  1  0
  7 20  1  0
  8 21  1  0
  8 22  1  0
M  END
