
     RDKit          3D

 21 22  0  0  0  0  0  0  0  0999 V2000
    3.3471    1.4615   -0.2518 O   0  0  0  0  0  0  0  0  0  0  0  0
    2.8325    0.3021    0.2570 C   0  0  0  0  0  0  0  0  0  0  0  0
    1.9130   -0.4196   -0.6862 C   0  0  0  0  0  0  0  0  0  0  0  0
    1.4349   -1.6509   -0.0017 O   0  0  0  0  0  0  0  0  0  0  0  0
    0.5308   -0.6692   -0.4561 C   0  0  0  0  0  0  0  0  0  0  0  0
   -0.2899    0.0432    0.6006 C   0  0  0  0  0  0  0  0  0  0  0  0
   -1.7380   -0.4626    0.5805 C   0  0  0  0  0  0  0  0  0  0  0  0
   -2.4803   -0.2618   -0.7309 C   0  0  0  0  0  0  0  0  0  0  0  0
   -2.8527    0.5136    0.5226 C   0  0  0  0  0  0  0  0  0  0  0  0
    2.7101    2.1589   -0.4606 H   0  0  0  0  0  0  0  0  0  0  0  0
    3.6981   -0.3901    0.4485 H   0  0  0  0  0  0  0  0  0  0  0  0
    2.3616    0.4759    1.2475 H   0  0  0  0  0  0  0  0  0  0  0  0
    2.3578   -0.6306   -1.6776 H   0  0  0  0  0  0  0  0  0  0  0  0
   -0.0885   -1.0416   -1.2971 H   0  0  0  0  0  0  0  0  0  0  0  0
    0.0762   -0.1715    1.6288 H   0  0  0  0  0  0  0  0  0  0  0  0
   -0.3044    1.1160    0.3797 H   0  0  0  0  0  0  0  0  0  0  0  0
   -1.9303   -1.4537    1.0430 H   0  0  0  0  0  0  0  0  0  0  0  0
   -3.2173   -1.0256   -1.0513 H   0  0  0  0  0  0  0  0  0  0  0  0
   -1.9789    0.2525   -1.5525 H   0  0  0  0  0  0  0  0  0  0  0  0
   -2.5724    1.5947    0.4622 H   0  0  0  0  0  0  0  0  0  0  0  0
   -3.8093    0.2588    0.9954 H   0  0  0  0  0  0  0  0  0  0  0  0
  1  2  1  0
  2  3  1  0
  3  4  1  0
  4  5  1  0
  5  6  1  0
  6  7  1  0
  7  8  1  0
  8  9  1  0
  5  3  1  0
  9  7  1  0
  1 10  1  0
  2 11  1  0
  2 12  1  0
  3 13  1  0
  5 14  1  0
  6 15  1  0
  6 16  1  0
  7 17  1  0
  8 18  1  0
  8 19  1  0
  9 20  1  0
  9 21  1  0
M  END
