
     RDKit          3D

 21 22  0  0  0  0  0  0  0  0999 V2000
    1.9303    0.1384   -1.5305 O   0  0  0  0  0  0  0  0  0  0  0  0
    1.9765    0.2680   -0.1773 C   0  0  0  0  0  0  0  0  0  0  0  0
    0.6881    0.2142    0.5421 C   0  0  0  0  0  0  0  0  0  0  0  0
   -0.3009    1.3040    0.1226 C   0  0  0  0  0  0  0  0  0  0  0  0
   -1.6631    0.6417    0.1528 C   0  0  0  0  0  0  0  0  0  0  0  0
   -1.3954   -0.5025    1.1495 C   0  0  0  0  0  0  0  0  0  0  0  0
   -0.1508   -0.9996    0.3702 C   0  0  0  0  0  0  0  0  0  0  0  0
   -0.7926   -1.0660   -0.9866 C   0  0  0  0  0  0  0  0  0  0  0  0
   -1.7883   -0.0758   -1.0186 O   0  0  0  0  0  0  0  0  0  0  0  0
    2.8322    0.3528   -1.8940 H   0  0  0  0  0  0  0  0  0  0  0  0
    2.4968    1.2174    0.1064 H   0  0  0  0  0  0  0  0  0  0  0  0
    2.6008   -0.5828    0.2177 H   0  0  0  0  0  0  0  0  0  0  0  0
    0.8207    0.3790    1.6544 H   0  0  0  0  0  0  0  0  0  0  0  0
   -0.0506    1.5561   -0.9387 H   0  0  0  0  0  0  0  0  0  0  0  0
   -0.2318    2.1861    0.7525 H   0  0  0  0  0  0  0  0  0  0  0  0
   -2.4851    1.2630    0.4182 H   0  0  0  0  0  0  0  0  0  0  0  0
   -1.1250   -0.1271    2.1330 H   0  0  0  0  0  0  0  0  0  0  0  0
   -2.2089   -1.2194    1.1023 H   0  0  0  0  0  0  0  0  0  0  0  0
    0.2297   -1.9232    0.7556 H   0  0  0  0  0  0  0  0  0  0  0  0
   -0.0887   -0.9510   -1.8294 H   0  0  0  0  0  0  0  0  0  0  0  0
   -1.2939   -2.0733   -1.1023 H   0  0  0  0  0  0  0  0  0  0  0  0
  1  2  1  0
  2  3  1  0
  3  4  1  0
  4  5  1  0
  5  6  1  0
  6  7  1  0
  7  8  1  0
  8  9  1  0
  7  3  1  0
  9  5  1  0
  1 10  1  0
  2 11  1  0
  2 12  1  0
  3 13  1  0
  4 14  1  0
  4 15  1  0
  5 16  1  0
  6 17  1  0
  6 18  1  0
  7 19  1  0
  8 20  1  0
  8 21  1  0
M  END
