
     RDKit          3D

 23 23  0  0  0  0  0  0  0  0999 V2000
   -2.6311    0.6838    1.5989 O   0  0  0  0  0  0  0  0  0  0  0  0
   -2.0800   -0.4027    0.9257 C   0  0  0  0  0  0  0  0  0  0  0  0
   -0.5662   -0.2010    0.7487 C   0  0  0  0  0  0  0  0  0  0  0  0
   -0.3955    1.0472   -0.0416 C   0  0  0  0  0  0  0  0  0  0  0  0
    0.9301    1.2843   -0.6272 C   0  0  0  0  0  0  0  0  0  0  0  0
    2.1023    0.8138    0.1685 C   0  0  0  0  0  0  0  0  0  0  0  0
    2.0419   -0.5050    0.5400 O   0  0  0  0  0  0  0  0  0  0  0  0
    1.3888   -1.3296   -0.3411 C   0  0  0  0  0  0  0  0  0  0  0  0
   -0.0529   -1.4329    0.0857 C   0  0  0  0  0  0  0  0  0  0  0  0
   -3.5954    0.7433    1.3371 H   0  0  0  0  0  0  0  0  0  0  0  0
   -2.3098   -1.3561    1.4025 H   0  0  0  0  0  0  0  0  0  0  0  0
   -2.5658   -0.4199   -0.0809 H   0  0  0  0  0  0  0  0  0  0  0  0
   -0.1731   -0.0700    1.7839 H   0  0  0  0  0  0  0  0  0  0  0  0
   -0.7500    1.8982    0.6006 H   0  0  0  0  0  0  0  0  0  0  0  0
   -1.1524    1.0131   -0.8803 H   0  0  0  0  0  0  0  0  0  0  0  0
    1.0612    2.3982   -0.7666 H   0  0  0  0  0  0  0  0  0  0  0  0
    0.9766    0.8750   -1.6678 H   0  0  0  0  0  0  0  0  0  0  0  0
    2.3128    1.4596    1.0395 H   0  0  0  0  0  0  0  0  0  0  0  0
    3.0013    0.9274   -0.5059 H   0  0  0  0  0  0  0  0  0  0  0  0
    1.8275   -2.3647   -0.2267 H   0  0  0  0  0  0  0  0  0  0  0  0
    1.5081   -1.0759   -1.3996 H   0  0  0  0  0  0  0  0  0  0  0  0
   -0.1633   -2.2741    0.8277 H   0  0  0  0  0  0  0  0  0  0  0  0
   -0.7154   -1.7117   -0.7593 H   0  0  0  0  0  0  0  0  0  0  0  0
  1  2  1  0
  2  3  1  0
  3  4  1  0
  4  5  1  0
  5  6  1  0
  6  7  1  0
  7  8  1  0
  8  9  1  0
  9  3  1  0
  1 10  1  0
  2 11  1  0
  2 12  1  0
  3 13  1  0
  4 14  1  0
  4 15  1  0
  5 16  1  0
  5 17  1  0
  6 18  1  0
  6 19  1  0
  8 20  1  0
  8 21  1  0
  9 22  1  0
  9 23  1  0
M  END
