
     RDKit          3D

 21 22  0  0  0  0  0  0  0  0999 V2000
    3.0368   -0.2292   -1.3836 O   0  0  0  0  0  0  0  0  0  0  0  0
    1.8563   -0.9905   -1.1928 C   0  0  0  0  0  0  0  0  0  0  0  0
    0.8053   -0.0874   -0.7656 C   0  0  0  0  0  0  0  0  0  0  0  0
   -0.5737   -0.5782   -0.4790 C   0  0  0  0  0  0  0  0  0  0  0  0
   -0.0418   -1.1368    0.7997 C   0  0  0  0  0  0  0  0  0  0  0  0
    0.6136    0.1947    0.7031 C   0  0  0  0  0  0  0  0  0  0  0  0
   -0.7062    0.7335    0.2358 C   0  0  0  0  0  0  0  0  0  0  0  0
   -1.7893    0.9531    1.1716 C   0  0  0  0  0  0  0  0  0  0  0  0
   -3.0240    0.8060    0.4949 O   0  0  0  0  0  0  0  0  0  0  0  0
    2.9407    0.6822   -1.0135 H   0  0  0  0  0  0  0  0  0  0  0  0
    1.6277   -1.4049   -2.2120 H   0  0  0  0  0  0  0  0  0  0  0  0
    2.1449   -1.8221   -0.5645 H   0  0  0  0  0  0  0  0  0  0  0  0
    0.7859    0.8594   -1.3319 H   0  0  0  0  0  0  0  0  0  0  0  0
   -1.2294   -0.9938   -1.1133 H   0  0  0  0  0  0  0  0  0  0  0  0
   -0.7525   -1.2719    1.6312 H   0  0  0  0  0  0  0  0  0  0  0  0
    0.5429   -2.0394    0.6614 H   0  0  0  0  0  0  0  0  0  0  0  0
    1.2689    0.6291    1.3220 H   0  0  0  0  0  0  0  0  0  0  0  0
   -0.5289    1.6204   -0.4230 H   0  0  0  0  0  0  0  0  0  0  0  0
   -1.8619    0.3714    2.0774 H   0  0  0  0  0  0  0  0  0  0  0  0
   -1.7695    2.0401    1.4831 H   0  0  0  0  0  0  0  0  0  0  0  0
   -3.3457    1.6643    0.1370 H   0  0  0  0  0  0  0  0  0  0  0  0
  1  2  1  0
  2  3  1  0
  3  4  1  0
  4  5  1  0
  5  6  1  0
  6  7  1  0
  7  8  1  0
  8  9  1  0
  6  3  1  0
  7  4  1  0
  1 10  1  0
  2 11  1  0
  2 12  1  0
  3 13  1  0
  4 14  1  0
  5 15  1  0
  5 16  1  0
  6 17  1  0
  7 18  1  0
  8 19  1  0
  8 20  1  0
  9 21  1  0
M  END
