
     RDKit          3D

 19 21  0  0  0  0  0  0  0  0999 V2000
    2.4633   -0.8115    0.2475 O   0  0  0  0  0  0  0  0  0  0  0  0
    1.8421    0.3707    0.0018 C   0  0  0  0  0  0  0  0  0  0  0  0
    0.3812    0.4149   -0.0590 C   0  0  0  0  0  0  0  0  0  0  0  0
   -0.1802    1.6764   -0.3154 O   0  0  0  0  0  0  0  0  0  0  0  0
   -1.5502    1.4354   -0.2353 C   0  0  0  0  0  0  0  0  0  0  0  0
   -1.5753   -0.0236   -0.0350 C   0  0  0  0  0  0  0  0  0  0  0  0
   -0.4596   -0.2547    0.9646 C   0  0  0  0  0  0  0  0  0  0  0  0
   -0.2669   -1.5342    0.2418 C   0  0  0  0  0  0  0  0  0  0  0  0
   -0.4178   -0.5243   -0.8638 C   0  0  0  0  0  0  0  0  0  0  0  0
    3.3863   -0.8090   -0.1142 H   0  0  0  0  0  0  0  0  0  0  0  0
    2.2270    0.8486   -0.9508 H   0  0  0  0  0  0  0  0  0  0  0  0
    2.1715    1.1171    0.7875 H   0  0  0  0  0  0  0  0  0  0  0  0
   -1.9919    1.9336    0.6778 H   0  0  0  0  0  0  0  0  0  0  0  0
   -2.0386    1.7971   -1.1436 H   0  0  0  0  0  0  0  0  0  0  0  0
   -2.4652   -0.5932    0.0346 H   0  0  0  0  0  0  0  0  0  0  0  0
   -0.5112   -0.0784    1.9481 H   0  0  0  0  0  0  0  0  0  0  0  0
    0.6293   -2.1146    0.3231 H   0  0  0  0  0  0  0  0  0  0  0  0
   -1.2180   -2.1473    0.3386 H   0  0  0  0  0  0  0  0  0  0  0  0
   -0.4258   -0.7029   -1.8482 H   0  0  0  0  0  0  0  0  0  0  0  0
  1  2  1  0
  2  3  1  0
  3  4  1  0
  4  5  1  0
  5  6  1  0
  6  7  1  0
  7  8  1  0
  8  9  1  0
  7  3  1  0
  9  3  1  0
  9  6  1  0
  1 10  1  0
  2 11  1  0
  2 12  1  0
  5 13  1  0
  5 14  1  0
  6 15  1  0
  7 16  1  0
  8 17  1  0
  8 18  1  0
  9 19  1  0
M  END
