
     RDKit          3D

 21 23  0  0  0  0  0  0  0  0999 V2000
    3.2593   -0.6188    0.1614 O   0  0  0  0  0  0  0  0  0  0  0  0
    2.2504    0.1039   -0.5228 C   0  0  0  0  0  0  0  0  0  0  0  0
    1.0858    0.2787    0.3739 C   0  0  0  0  0  0  0  0  0  0  0  0
   -0.1164    1.0032   -0.0773 C   0  0  0  0  0  0  0  0  0  0  0  0
   -0.4672   -0.2060   -0.8935 C   0  0  0  0  0  0  0  0  0  0  0  0
   -1.9816   -0.2681   -0.8938 C   0  0  0  0  0  0  0  0  0  0  0  0
   -2.2326    0.0703    0.5858 C   0  0  0  0  0  0  0  0  0  0  0  0
   -0.8309    0.2748    1.0388 C   0  0  0  0  0  0  0  0  0  0  0  0
    0.0195   -0.7863    0.3749 C   0  0  0  0  0  0  0  0  0  0  0  0
    4.0454   -0.6379   -0.4336 H   0  0  0  0  0  0  0  0  0  0  0  0
    2.6771    1.0370   -0.9209 H   0  0  0  0  0  0  0  0  0  0  0  0
    1.9628   -0.5223   -1.3902 H   0  0  0  0  0  0  0  0  0  0  0  0
    1.3678    0.4819    1.4306 H   0  0  0  0  0  0  0  0  0  0  0  0
   -0.2410    1.9640   -0.3266 H   0  0  0  0  0  0  0  0  0  0  0  0
    0.0279   -0.3730   -1.8305 H   0  0  0  0  0  0  0  0  0  0  0  0
   -2.4290    0.4971   -1.5446 H   0  0  0  0  0  0  0  0  0  0  0  0
   -2.3673   -1.2651   -1.1454 H   0  0  0  0  0  0  0  0  0  0  0  0
   -2.8548    0.9592    0.6822 H   0  0  0  0  0  0  0  0  0  0  0  0
   -2.6754   -0.8027    1.1158 H   0  0  0  0  0  0  0  0  0  0  0  0
   -0.6138    0.5459    2.0490 H   0  0  0  0  0  0  0  0  0  0  0  0
    0.1142   -1.7359    0.6639 H   0  0  0  0  0  0  0  0  0  0  0  0
  1  2  1  0
  2  3  1  0
  3  4  1  0
  4  5  1  0
  5  6  1  0
  6  7  1  0
  7  8  1  0
  8  9  1  0
  9  3  1  0
  8  4  1  0
  9  5  1  0
  1 10  1  0
  2 11  1  0
  2 12  1  0
  3 13  1  0
  4 14  1  0
  5 15  1  0
  6 16  1  0
  6 17  1  0
  7 18  1  0
  7 19  1  0
  8 20  1  0
  9 21  1  0
M  END
