
     RDKit          3D

 17 19  0  0  0  0  0  0  0  0999 V2000
    2.6232   -0.6319    0.1921 O   0  0  0  0  0  0  0  0  0  0  0  0
    1.6449    0.2870    0.5567 C   0  0  0  0  0  0  0  0  0  0  0  0
    0.5073    0.3116   -0.4166 C   0  0  0  0  0  0  0  0  0  0  0  0
   -0.5527    1.3191   -0.0060 C   0  0  0  0  0  0  0  0  0  0  0  0
   -1.0493    0.7202    1.1413 O   0  0  0  0  0  0  0  0  0  0  0  0
   -1.3967   -0.5511    0.6698 C   0  0  0  0  0  0  0  0  0  0  0  0
   -1.7024   -0.3497   -0.7386 C   0  0  0  0  0  0  0  0  0  0  0  0
   -1.5397    1.0240   -0.9324 O   0  0  0  0  0  0  0  0  0  0  0  0
   -0.3850   -0.9192   -0.3035 C   0  0  0  0  0  0  0  0  0  0  0  0
    2.2758   -1.3522   -0.3943 H   0  0  0  0  0  0  0  0  0  0  0  0
    2.1267    1.2884    0.5210 H   0  0  0  0  0  0  0  0  0  0  0  0
    1.2753    0.1452    1.5717 H   0  0  0  0  0  0  0  0  0  0  0  0
    0.8113    0.4386   -1.4647 H   0  0  0  0  0  0  0  0  0  0  0  0
   -0.2335    2.3292    0.0670 H   0  0  0  0  0  0  0  0  0  0  0  0
   -1.9584   -1.2408    1.3079 H   0  0  0  0  0  0  0  0  0  0  0  0
   -2.4080   -0.9217   -1.3286 H   0  0  0  0  0  0  0  0  0  0  0  0
   -0.0389   -1.8967   -0.5718 H   0  0  0  0  0  0  0  0  0  0  0  0
  1  2  1  0
  2  3  1  0
  3  4  1  0
  4  5  1  0
  5  6  1  0
  6  7  1  0
  7  8  1  0
  7  9  1  0
  9  3  1  0
  8  4  1  0
  9  6  1  0
  1 10  1  0
  2 11  1  0
  2 12  1  0
  3 13  1  0
  4 14  1  0
  6 15  1  0
  7 16  1  0
  9 17  1  0
M  END
