
     RDKit          3D

 19 21  0  0  0  0  0  0  0  0999 V2000
    1.9755    0.1047    1.4680 O   0  0  0  0  0  0  0  0  0  0  0  0
    1.7434   -0.2488    0.1436 C   0  0  0  0  0  0  0  0  0  0  0  0
    0.4513    0.2371   -0.3955 C   0  0  0  0  0  0  0  0  0  0  0  0
    0.0966    1.6718   -0.4677 C   0  0  0  0  0  0  0  0  0  0  0  0
   -0.6680    0.7079    0.4127 C   0  0  0  0  0  0  0  0  0  0  0  0
   -0.6205    0.9077    1.7693 O   0  0  0  0  0  0  0  0  0  0  0  0
   -1.6028   -0.2847   -0.2051 C   0  0  0  0  0  0  0  0  0  0  0  0
   -1.1506   -1.7209   -0.3910 C   0  0  0  0  0  0  0  0  0  0  0  0
   -0.4361   -0.7001   -1.1590 C   0  0  0  0  0  0  0  0  0  0  0  0
    2.6943   -0.4555    1.8529 H   0  0  0  0  0  0  0  0  0  0  0  0
    1.7272   -1.3708    0.1141 H   0  0  0  0  0  0  0  0  0  0  0  0
    2.5723    0.0919   -0.5018 H   0  0  0  0  0  0  0  0  0  0  0  0
   -0.5078    2.0204   -1.3413 H   0  0  0  0  0  0  0  0  0  0  0  0
    0.6881    2.4232    0.0720 H   0  0  0  0  0  0  0  0  0  0  0  0
   -1.3071    1.6179    1.9817 H   0  0  0  0  0  0  0  0  0  0  0  0
   -2.5145    0.0587   -0.7417 H   0  0  0  0  0  0  0  0  0  0  0  0
   -1.9399   -2.3584   -0.8474 H   0  0  0  0  0  0  0  0  0  0  0  0
   -0.6153   -2.2000    0.4551 H   0  0  0  0  0  0  0  0  0  0  0  0
   -0.5861   -0.5020   -2.2189 H   0  0  0  0  0  0  0  0  0  0  0  0
  1  2  1  0
  2  3  1  0
  3  4  1  0
  4  5  1  0
  5  6  1  0
  5  7  1  0
  7  8  1  0
  8  9  1  0
  5  3  1  0
  9  7  1  0
  9  3  1  0
  1 10  1  0
  2 11  1  0
  2 12  1  0
  4 13  1  0
  4 14  1  0
  6 15  1  0
  7 16  1  0
  8 17  1  0
  8 18  1  0
  9 19  1  0
M  END
