
     RDKit          3D

 21 22  0  0  0  0  0  0  0  0999 V2000
    3.4628    0.4108   -0.6651 O   0  0  0  0  0  0  0  0  0  0  0  0
    2.1471    0.8952   -0.5776 C   0  0  0  0  0  0  0  0  0  0  0  0
    1.3889    0.0788    0.4144 C   0  0  0  0  0  0  0  0  0  0  0  0
    1.1963   -1.3800    0.2508 C   0  0  0  0  0  0  0  0  0  0  0  0
    0.0824   -0.4918   -0.1146 C   0  0  0  0  0  0  0  0  0  0  0  0
   -1.1031   -0.2846    0.7745 C   0  0  0  0  0  0  0  0  0  0  0  0
   -2.3982   -0.8356    0.2776 C   0  0  0  0  0  0  0  0  0  0  0  0
   -2.1313    0.6724    0.3592 C   0  0  0  0  0  0  0  0  0  0  0  0
   -2.9542    1.3173    1.2693 O   0  0  0  0  0  0  0  0  0  0  0  0
    3.6636    0.0170    0.2248 H   0  0  0  0  0  0  0  0  0  0  0  0
    2.2036    1.9346   -0.1845 H   0  0  0  0  0  0  0  0  0  0  0  0
    1.6551    0.8983   -1.5725 H   0  0  0  0  0  0  0  0  0  0  0  0
    1.4203    0.4332    1.4620 H   0  0  0  0  0  0  0  0  0  0  0  0
    1.0739   -2.0044    1.1348 H   0  0  0  0  0  0  0  0  0  0  0  0
    1.8009   -1.8555   -0.5501 H   0  0  0  0  0  0  0  0  0  0  0  0
   -0.1348   -0.3952   -1.1949 H   0  0  0  0  0  0  0  0  0  0  0  0
   -0.8563   -0.3092    1.8629 H   0  0  0  0  0  0  0  0  0  0  0  0
   -2.4173   -1.2678   -0.7372 H   0  0  0  0  0  0  0  0  0  0  0  0
   -3.0395   -1.2990    1.0329 H   0  0  0  0  0  0  0  0  0  0  0  0
   -1.9658    1.2176   -0.5999 H   0  0  0  0  0  0  0  0  0  0  0  0
   -3.0946    2.2479    1.0031 H   0  0  0  0  0  0  0  0  0  0  0  0
  1  2  1  0
  2  3  1  0
  3  4  1  0
  4  5  1  0
  5  6  1  0
  6  7  1  0
  7  8  1  0
  8  9  1  0
  5  3  1  0
  8  6  1  0
  1 10  1  0
  2 11  1  0
  2 12  1  0
  3 13  1  0
  4 14  1  0
  4 15  1  0
  5 16  1  0
  6 17  1  0
  7 18  1  0
  7 19  1  0
  8 20  1  0
  9 21  1  0
M  END
