
     RDKit          3D

 21 22  0  0  0  0  0  0  0  0999 V2000
    2.0962   -1.3256    0.9749 O   0  0  0  0  0  0  0  0  0  0  0  0
    1.7738    0.0162    0.8241 C   0  0  0  0  0  0  0  0  0  0  0  0
    0.7293    0.1175   -0.2502 C   0  0  0  0  0  0  0  0  0  0  0  0
    0.2690    1.5496   -0.5324 C   0  0  0  0  0  0  0  0  0  0  0  0
   -1.1010    0.9200   -0.8342 C   0  0  0  0  0  0  0  0  0  0  0  0
   -0.6624   -0.1764    0.0863 C   0  0  0  0  0  0  0  0  0  0  0  0
   -1.1369   -0.1595    1.4751 C   0  0  0  0  0  0  0  0  0  0  0  0
   -1.6605   -1.4567    1.2559 O   0  0  0  0  0  0  0  0  0  0  0  0
   -1.2239   -1.5186   -0.0895 C   0  0  0  0  0  0  0  0  0  0  0  0
    2.7113   -1.5795    0.2442 H   0  0  0  0  0  0  0  0  0  0  0  0
    1.4833    0.5049    1.7712 H   0  0  0  0  0  0  0  0  0  0  0  0
    2.6976    0.5230    0.4570 H   0  0  0  0  0  0  0  0  0  0  0  0
    1.0861   -0.3270   -1.1811 H   0  0  0  0  0  0  0  0  0  0  0  0
    0.7545    2.0200   -1.3834 H   0  0  0  0  0  0  0  0  0  0  0  0
    0.1873    2.1621    0.4005 H   0  0  0  0  0  0  0  0  0  0  0  0
   -1.9578    1.5196   -0.5484 H   0  0  0  0  0  0  0  0  0  0  0  0
   -1.1312    0.6176   -1.8973 H   0  0  0  0  0  0  0  0  0  0  0  0
   -0.4220   -0.0832    2.2921 H   0  0  0  0  0  0  0  0  0  0  0  0
   -1.9782    0.5735    1.6221 H   0  0  0  0  0  0  0  0  0  0  0  0
   -2.0699   -1.5859   -0.8045 H   0  0  0  0  0  0  0  0  0  0  0  0
   -0.4447   -2.3114   -0.2166 H   0  0  0  0  0  0  0  0  0  0  0  0
  1  2  1  0
  2  3  1  0
  3  4  1  0
  4  5  1  0
  5  6  1  0
  6  7  1  0
  7  8  1  0
  8  9  1  0
  6  3  1  0
  9  6  1  0
  1 10  1  0
  2 11  1  0
  2 12  1  0
  3 13  1  0
  4 14  1  0
  4 15  1  0
  5 16  1  0
  5 17  1  0
  7 18  1  0
  7 19  1  0
  9 20  1  0
  9 21  1  0
M  END
