
     RDKit          3D

 21 23  0  0  0  0  0  0  0  0999 V2000
   -2.8314    0.6676    0.3414 O   0  0  0  0  0  0  0  0  0  0  0  0
   -2.2036   -0.5186   -0.0211 C   0  0  0  0  0  0  0  0  0  0  0  0
   -0.7330   -0.3331    0.1137 C   0  0  0  0  0  0  0  0  0  0  0  0
    0.2281   -1.4424   -0.2068 C   0  0  0  0  0  0  0  0  0  0  0  0
    1.0581   -0.4132   -0.9812 C   0  0  0  0  0  0  0  0  0  0  0  0
    2.0931    0.2216   -0.0796 C   0  0  0  0  0  0  0  0  0  0  0  0
    1.2951    0.8818    1.0088 C   0  0  0  0  0  0  0  0  0  0  0  0
   -0.1299    0.9712    0.5106 C   0  0  0  0  0  0  0  0  0  0  0  0
   -0.0896    0.5371   -0.8743 C   0  0  0  0  0  0  0  0  0  0  0  0
   -2.6646    0.8988    1.2817 H   0  0  0  0  0  0  0  0  0  0  0  0
   -2.5294   -0.7327   -1.0723 H   0  0  0  0  0  0  0  0  0  0  0  0
   -2.5870   -1.3579    0.5895 H   0  0  0  0  0  0  0  0  0  0  0  0
   -0.1416   -2.2429   -0.8463 H   0  0  0  0  0  0  0  0  0  0  0  0
    0.7726   -1.7756    0.7235 H   0  0  0  0  0  0  0  0  0  0  0  0
    1.3851   -0.7230   -1.9679 H   0  0  0  0  0  0  0  0  0  0  0  0
    2.6410    0.9725   -0.7031 H   0  0  0  0  0  0  0  0  0  0  0  0
    2.7879   -0.5426    0.2891 H   0  0  0  0  0  0  0  0  0  0  0  0
    1.6571    1.9166    1.2052 H   0  0  0  0  0  0  0  0  0  0  0  0
    1.3702    0.3099    1.9602 H   0  0  0  0  0  0  0  0  0  0  0  0
   -0.8136    1.7064    0.9316 H   0  0  0  0  0  0  0  0  0  0  0  0
   -0.5645    0.9985   -1.7222 H   0  0  0  0  0  0  0  0  0  0  0  0
  1  2  1  0
  2  3  1  0
  3  4  1  0
  4  5  1  0
  5  6  1  0
  6  7  1  0
  7  8  1  0
  8  9  1  0
  8  3  1  0
  9  3  1  0
  9  5  1  0
  1 10  1  0
  2 11  1  0
  2 12  1  0
  4 13  1  0
  4 14  1  0
  5 15  1  0
  6 16  1  0
  6 17  1  0
  7 18  1  0
  7 19  1  0
  8 20  1  0
  9 21  1  0
M  END
