
     RDKit          3D

 21 22  0  0  0  0  0  0  0  0999 V2000
    2.6200    0.4592    1.0463 O   0  0  0  0  0  0  0  0  0  0  0  0
    1.3111    0.7736    0.7022 C   0  0  0  0  0  0  0  0  0  0  0  0
    0.7285   -0.2666   -0.2046 C   0  0  0  0  0  0  0  0  0  0  0  0
    0.6187   -1.6904    0.2481 C   0  0  0  0  0  0  0  0  0  0  0  0
   -0.9004   -1.5295    0.1248 C   0  0  0  0  0  0  0  0  0  0  0  0
   -0.6951   -0.1961   -0.5081 C   0  0  0  0  0  0  0  0  0  0  0  0
   -1.5800    0.9490   -0.2126 C   0  0  0  0  0  0  0  0  0  0  0  0
   -1.6756    1.2867    1.1264 O   0  0  0  0  0  0  0  0  0  0  0  0
    0.3228    0.0027   -1.5831 C   0  0  0  0  0  0  0  0  0  0  0  0
    3.2786    0.9346    0.4515 H   0  0  0  0  0  0  0  0  0  0  0  0
    1.2451    1.7987    0.2913 H   0  0  0  0  0  0  0  0  0  0  0  0
    0.7041    0.7855    1.6488 H   0  0  0  0  0  0  0  0  0  0  0  0
    0.9835   -1.9297    1.2427 H   0  0  0  0  0  0  0  0  0  0  0  0
    0.9528   -2.3861   -0.5758 H   0  0  0  0  0  0  0  0  0  0  0  0
   -1.3208   -1.5045    1.1502 H   0  0  0  0  0  0  0  0  0  0  0  0
   -1.3903   -2.3059   -0.4889 H   0  0  0  0  0  0  0  0  0  0  0  0
   -1.2826    1.8373   -0.7672 H   0  0  0  0  0  0  0  0  0  0  0  0
   -2.6181    0.6859   -0.5737 H   0  0  0  0  0  0  0  0  0  0  0  0
   -2.1950    2.1357    1.1671 H   0  0  0  0  0  0  0  0  0  0  0  0
    0.4251   -0.8458   -2.3194 H   0  0  0  0  0  0  0  0  0  0  0  0
    0.4675    1.0056   -1.9659 H   0  0  0  0  0  0  0  0  0  0  0  0
  1  2  1  0
  2  3  1  0
  3  4  1  0
  4  5  1  0
  5  6  1  0
  6  7  1  0
  7  8  1  0
  6  9  1  0
  6  3  1  0
  9  3  1  0
  1 10  1  0
  2 11  1  0
  2 12  1  0
  4 13  1  0
  4 14  1  0
  5 15  1  0
  5 16  1  0
  7 17  1  0
  7 18  1  0
  8 19  1  0
  9 20  1  0
  9 21  1  0
M  END
