
     RDKit          3D

 23 24  0  0  0  0  0  0  0  0999 V2000
    2.8230   -0.1796   -0.9208 O   0  0  0  0  0  0  0  0  0  0  0  0
    2.0956   -0.4427    0.2320 C   0  0  0  0  0  0  0  0  0  0  0  0
    0.6388   -0.1456    0.0605 C   0  0  0  0  0  0  0  0  0  0  0  0
   -0.0789   -0.9028   -1.0025 C   0  0  0  0  0  0  0  0  0  0  0  0
   -1.5485   -0.9376   -0.6462 C   0  0  0  0  0  0  0  0  0  0  0  0
   -1.9962    0.3719   -0.0930 C   0  0  0  0  0  0  0  0  0  0  0  0
   -0.9478    1.0188    0.7536 C   0  0  0  0  0  0  0  0  0  0  0  0
    0.2908    1.3228   -0.1033 C   0  0  0  0  0  0  0  0  0  0  0  0
   -0.1090   -0.1060    1.3750 C   0  0  0  0  0  0  0  0  0  0  0  0
    3.2328    0.7263   -0.8022 H   0  0  0  0  0  0  0  0  0  0  0  0
    2.4889    0.0806    1.1273 H   0  0  0  0  0  0  0  0  0  0  0  0
    2.1804   -1.5316    0.4620 H   0  0  0  0  0  0  0  0  0  0  0  0
   -0.0075   -0.2981   -1.9475 H   0  0  0  0  0  0  0  0  0  0  0  0
    0.3325   -1.8857   -1.2360 H   0  0  0  0  0  0  0  0  0  0  0  0
   -2.1616   -1.2149   -1.5394 H   0  0  0  0  0  0  0  0  0  0  0  0
   -1.6957   -1.7766    0.0772 H   0  0  0  0  0  0  0  0  0  0  0  0
   -2.8780    0.1698    0.5705 H   0  0  0  0  0  0  0  0  0  0  0  0
   -2.3831    1.0600   -0.8793 H   0  0  0  0  0  0  0  0  0  0  0  0
   -1.2457    1.8089    1.4352 H   0  0  0  0  0  0  0  0  0  0  0  0
    1.0330    1.9370    0.4158 H   0  0  0  0  0  0  0  0  0  0  0  0
    0.0594    1.5895   -1.1488 H   0  0  0  0  0  0  0  0  0  0  0  0
    0.5373    0.3325    2.1562 H   0  0  0  0  0  0  0  0  0  0  0  0
   -0.6606   -0.9971    1.6537 H   0  0  0  0  0  0  0  0  0  0  0  0
  1  2  1  0
  2  3  1  0
  3  4  1  0
  4  5  1  0
  5  6  1  0
  6  7  1  0
  7  8  1  0
  7  9  1  0
  8  3  1  0
  9  3  1  0
  1 10  1  0
  2 11  1  0
  2 12  1  0
  4 13  1  0
  4 14  1  0
  5 15  1  0
  5 16  1  0
  6 17  1  0
  6 18  1  0
  7 19  1  0
  8 20  1  0
  8 21  1  0
  9 22  1  0
  9 23  1  0
M  END
