
     RDKit          3D

 21 22  0  0  0  0  0  0  0  0999 V2000
    2.8094    0.4637   -0.8631 O   0  0  0  0  0  0  0  0  0  0  0  0
    2.0116    0.3915    0.2933 C   0  0  0  0  0  0  0  0  0  0  0  0
    0.8016   -0.4524    0.1039 C   0  0  0  0  0  0  0  0  0  0  0  0
   -0.1691   -0.0409   -0.9624 C   0  0  0  0  0  0  0  0  0  0  0  0
   -1.2676   -1.0642   -0.7897 C   0  0  0  0  0  0  0  0  0  0  0  0
   -1.3766   -1.0323    0.7496 C   0  0  0  0  0  0  0  0  0  0  0  0
   -0.3263   -0.0216    1.0504 C   0  0  0  0  0  0  0  0  0  0  0  0
   -0.6432    1.0436   -0.0008 C   0  0  0  0  0  0  0  0  0  0  0  0
   -2.0384    1.2069   -0.0465 O   0  0  0  0  0  0  0  0  0  0  0  0
    3.7193    0.7453   -0.5324 H   0  0  0  0  0  0  0  0  0  0  0  0
    1.8248    1.4131    0.6134 H   0  0  0  0  0  0  0  0  0  0  0  0
    2.6623   -0.1458    1.0451 H   0  0  0  0  0  0  0  0  0  0  0  0
    0.9815   -1.5333    0.1160 H   0  0  0  0  0  0  0  0  0  0  0  0
    0.1585    0.2353   -1.9255 H   0  0  0  0  0  0  0  0  0  0  0  0
   -2.1979   -0.7644   -1.2687 H   0  0  0  0  0  0  0  0  0  0  0  0
   -0.9470   -2.0709   -1.0677 H   0  0  0  0  0  0  0  0  0  0  0  0
   -2.3762   -0.6289    1.0230 H   0  0  0  0  0  0  0  0  0  0  0  0
   -1.1974   -2.0258    1.1780 H   0  0  0  0  0  0  0  0  0  0  0  0
   -0.0821    0.2780    2.0243 H   0  0  0  0  0  0  0  0  0  0  0  0
   -0.0533    1.9489    0.0380 H   0  0  0  0  0  0  0  0  0  0  0  0
   -2.2938    2.0544   -0.5034 H   0  0  0  0  0  0  0  0  0  0  0  0
  1  2  1  0
  2  3  1  0
  3  4  1  0
  4  5  1  0
  5  6  1  0
  6  7  1  0
  7  8  1  0
  8  9  1  0
  7  3  1  0
  8  4  1  0
  1 10  1  0
  2 11  1  0
  2 12  1  0
  3 13  1  0
  4 14  1  0
  5 15  1  0
  5 16  1  0
  6 17  1  0
  6 18  1  0
  7 19  1  0
  8 20  1  0
  9 21  1  0
M  END
