
     RDKit          3D

 21 22  0  0  0  0  0  0  0  0999 V2000
    2.3527   -1.4598    0.2159 O   0  0  0  0  0  0  0  0  0  0  0  0
    1.7218   -0.2662    0.5616 C   0  0  0  0  0  0  0  0  0  0  0  0
    0.8393    0.2569   -0.5318 C   0  0  0  0  0  0  0  0  0  0  0  0
    0.2129    1.5467   -0.0444 C   0  0  0  0  0  0  0  0  0  0  0  0
   -0.9371    1.0120    0.7991 C   0  0  0  0  0  0  0  0  0  0  0  0
   -1.4759   -0.1333    0.0092 C   0  0  0  0  0  0  0  0  0  0  0  0
   -2.7490    0.0494   -0.5029 O   0  0  0  0  0  0  0  0  0  0  0  0
   -0.9508   -1.5105    0.1599 C   0  0  0  0  0  0  0  0  0  0  0  0
   -0.3506   -0.5974   -0.8146 C   0  0  0  0  0  0  0  0  0  0  0  0
    2.8802   -1.3698   -0.6195 H   0  0  0  0  0  0  0  0  0  0  0  0
    1.2177   -0.4292    1.5180 H   0  0  0  0  0  0  0  0  0  0  0  0
    2.5207    0.4847    0.7367 H   0  0  0  0  0  0  0  0  0  0  0  0
    1.4652    0.4093   -1.4299 H   0  0  0  0  0  0  0  0  0  0  0  0
    0.9684    2.0762    0.5907 H   0  0  0  0  0  0  0  0  0  0  0  0
   -0.1542    2.1764   -0.8760 H   0  0  0  0  0  0  0  0  0  0  0  0
   -0.5067    0.6376    1.7423 H   0  0  0  0  0  0  0  0  0  0  0  0
   -1.6756    1.7998    1.0000 H   0  0  0  0  0  0  0  0  0  0  0  0
   -2.7876    0.2310   -1.4569 H   0  0  0  0  0  0  0  0  0  0  0  0
   -0.4390   -1.8365    1.0915 H   0  0  0  0  0  0  0  0  0  0  0  0
   -1.6020   -2.3121   -0.2526 H   0  0  0  0  0  0  0  0  0  0  0  0
   -0.5504   -0.7651   -1.8961 H   0  0  0  0  0  0  0  0  0  0  0  0
  1  2  1  0
  2  3  1  0
  3  4  1  0
  4  5  1  0
  5  6  1  0
  6  7  1  0
  6  8  1  0
  8  9  1  0
  9  3  1  0
  9  6  1  0
  1 10  1  0
  2 11  1  0
  2 12  1  0
  3 13  1  0
  4 14  1  0
  4 15  1  0
  5 16  1  0
  5 17  1  0
  7 18  1  0
  8 19  1  0
  8 20  1  0
  9 21  1  0
M  END
