
     RDKit          3D

 21 22  0  0  0  0  0  0  0  0999 V2000
    3.1722    0.3739    0.7777 O   0  0  0  0  0  0  0  0  0  0  0  0
    2.3745   -0.7302    0.4363 C   0  0  0  0  0  0  0  0  0  0  0  0
    0.9405   -0.3558    0.5883 C   0  0  0  0  0  0  0  0  0  0  0  0
    0.3215    0.7424   -0.1710 C   0  0  0  0  0  0  0  0  0  0  0  0
   -0.8839    1.4878    0.3319 C   0  0  0  0  0  0  0  0  0  0  0  0
   -2.1437    1.0046   -0.2374 C   0  0  0  0  0  0  0  0  0  0  0  0
   -2.3435   -0.2611   -0.5595 C   0  0  0  0  0  0  0  0  0  0  0  0
   -1.2420   -1.2211   -0.3305 C   0  0  0  0  0  0  0  0  0  0  0  0
    0.0753   -0.6218   -0.6250 C   0  0  0  0  0  0  0  0  0  0  0  0
    3.0356    1.0288    0.0210 H   0  0  0  0  0  0  0  0  0  0  0  0
    2.6678   -1.6364    0.9759 H   0  0  0  0  0  0  0  0  0  0  0  0
    2.5872   -0.9139   -0.6356 H   0  0  0  0  0  0  0  0  0  0  0  0
    0.5230   -0.6269    1.6025 H   0  0  0  0  0  0  0  0  0  0  0  0
    1.0165    1.3615   -0.7750 H   0  0  0  0  0  0  0  0  0  0  0  0
   -0.7952    2.5703    0.1146 H   0  0  0  0  0  0  0  0  0  0  0  0
   -0.9368    1.4235    1.4584 H   0  0  0  0  0  0  0  0  0  0  0  0
   -2.9502    1.7079   -0.4035 H   0  0  0  0  0  0  0  0  0  0  0  0
   -3.2658   -0.6429   -0.9819 H   0  0  0  0  0  0  0  0  0  0  0  0
   -1.2986   -1.5940    0.7351 H   0  0  0  0  0  0  0  0  0  0  0  0
   -1.4038   -2.1500   -0.9539 H   0  0  0  0  0  0  0  0  0  0  0  0
    0.5494   -0.9465   -1.5669 H   0  0  0  0  0  0  0  0  0  0  0  0
  1  2  1  0
  2  3  1  0
  3  4  1  0
  4  5  1  0
  5  6  1  0
  6  7  2  0
  7  8  1  0
  8  9  1  0
  9  3  1  0
  9  4  1  0
  1 10  1  0
  2 11  1  0
  2 12  1  0
  3 13  1  0
  4 14  1  0
  5 15  1  0
  5 16  1  0
  6 17  1  0
  7 18  1  0
  8 19  1  0
  8 20  1  0
  9 21  1  0
M  END
