
     RDKit          3D

 18 19  0  0  0  0  0  0  0  0999 V2000
   -2.2698   -0.1891    0.8727 O   0  0  0  0  0  0  0  0  0  0  0  0
   -1.8167   -0.3725   -0.4191 C   0  0  0  0  0  0  0  0  0  0  0  0
   -0.3507   -0.0846   -0.5622 C   0  0  0  0  0  0  0  0  0  0  0  0
    0.4941   -0.9853    0.3250 C   0  0  0  0  0  0  0  0  0  0  0  0
    1.7674   -0.1451    0.5242 C   0  0  0  0  0  0  0  0  0  0  0  0
    1.5618    0.9865   -0.4037 C   0  0  0  0  0  0  0  0  0  0  0  0
    0.9405    2.1326   -0.3345 O   0  0  0  0  0  0  0  0  0  0  0  0
    0.0731    1.2259    0.0144 C   0  0  0  0  0  0  0  0  0  0  0  0
   -2.9192    0.5840    0.8705 H   0  0  0  0  0  0  0  0  0  0  0  0
   -2.3478    0.2733   -1.1490 H   0  0  0  0  0  0  0  0  0  0  0  0
   -1.9794   -1.4184   -0.7721 H   0  0  0  0  0  0  0  0  0  0  0  0
   -0.0378   -0.2391   -1.5915 H   0  0  0  0  0  0  0  0  0  0  0  0
    0.0117   -1.0382    1.3324 H   0  0  0  0  0  0  0  0  0  0  0  0
    0.6977   -1.9520   -0.1139 H   0  0  0  0  0  0  0  0  0  0  0  0
    2.6304   -0.7590    0.1837 H   0  0  0  0  0  0  0  0  0  0  0  0
    1.9392    0.1064    1.5668 H   0  0  0  0  0  0  0  0  0  0  0  0
    1.7151    0.6615   -1.4796 H   0  0  0  0  0  0  0  0  0  0  0  0
   -0.1093    1.2131    1.1359 H   0  0  0  0  0  0  0  0  0  0  0  0
  1  2  1  0
  2  3  1  0
  3  4  1  0
  4  5  1  0
  5  6  1  0
  6  7  1  0
  7  8  1  0
  8  3  1  0
  8  6  1  0
  1  9  1  0
  2 10  1  0
  2 11  1  0
  3 12  1  0
  4 13  1  0
  4 14  1  0
  5 15  1  0
  5 16  1  0
  6 17  1  0
  8 18  1  0
M  END
