
     RDKit          3D

 21 23  0  0  0  0  0  0  0  0999 V2000
    2.5993    0.1432   -0.6771 O   0  0  0  0  0  0  0  0  0  0  0  0
    1.7484    0.6052    0.3588 C   0  0  0  0  0  0  0  0  0  0  0  0
    0.4146    0.0570    0.1010 C   0  0  0  0  0  0  0  0  0  0  0  0
    0.2840   -1.4497    0.0618 C   0  0  0  0  0  0  0  0  0  0  0  0
   -1.2238   -1.5504   -0.2319 C   0  0  0  0  0  0  0  0  0  0  0  0
   -1.5749   -0.1033   -0.2301 C   0  0  0  0  0  0  0  0  0  0  0  0
   -0.7656    0.5055    0.8948 C   0  0  0  0  0  0  0  0  0  0  0  0
   -0.7660    1.7376    0.0586 C   0  0  0  0  0  0  0  0  0  0  0  0
   -0.4694    0.6405   -0.9269 C   0  0  0  0  0  0  0  0  0  0  0  0
    3.0206   -0.7173   -0.3852 H   0  0  0  0  0  0  0  0  0  0  0  0
    2.2280    0.2567    1.2953 H   0  0  0  0  0  0  0  0  0  0  0  0
    1.8127    1.7051    0.2889 H   0  0  0  0  0  0  0  0  0  0  0  0
    0.4986   -1.8125    1.0885 H   0  0  0  0  0  0  0  0  0  0  0  0
    0.8848   -1.9131   -0.7140 H   0  0  0  0  0  0  0  0  0  0  0  0
   -1.3270   -2.0395   -1.2199 H   0  0  0  0  0  0  0  0  0  0  0  0
   -1.6895   -2.0898    0.5921 H   0  0  0  0  0  0  0  0  0  0  0  0
   -2.5864    0.2153   -0.3617 H   0  0  0  0  0  0  0  0  0  0  0  0
   -0.9411    0.4039    1.8723 H   0  0  0  0  0  0  0  0  0  0  0  0
   -0.0261    2.5094    0.2200 H   0  0  0  0  0  0  0  0  0  0  0  0
   -1.7858    2.1572   -0.1724 H   0  0  0  0  0  0  0  0  0  0  0  0
   -0.3353    0.7391   -1.9129 H   0  0  0  0  0  0  0  0  0  0  0  0
  1  2  1  0
  2  3  1  0
  3  4  1  0
  4  5  1  0
  5  6  1  0
  6  7  1  0
  7  8  1  0
  8  9  1  0
  7  3  1  0
  9  3  1  0
  9  6  1  0
  1 10  1  0
  2 11  1  0
  2 12  1  0
  4 13  1  0
  4 14  1  0
  5 15  1  0
  5 16  1  0
  6 17  1  0
  7 18  1  0
  8 19  1  0
  8 20  1  0
  9 21  1  0
M  END
