
     RDKit          3D

 17 18  0  0  0  0  0  0  0  0999 V2000
    2.9213   -0.1497   -0.7230 O   0  0  0  0  0  0  0  0  0  0  0  0
    1.9167   -0.1402    0.2354 C   0  0  0  0  0  0  0  0  0  0  0  0
    0.5888   -0.6286   -0.3702 C   0  0  0  0  0  0  0  0  0  0  0  0
   -0.5251   -0.6682    0.5052 C   0  0  0  0  0  0  0  0  0  0  0  0
   -1.4769    0.4668    0.8761 C   0  0  0  0  0  0  0  0  0  0  0  0
   -1.9424    0.1567   -0.5656 C   0  0  0  0  0  0  0  0  0  0  0  0
   -0.4314    0.2754   -0.7714 C   0  0  0  0  0  0  0  0  0  0  0  0
    3.5682    0.5587   -0.4734 H   0  0  0  0  0  0  0  0  0  0  0  0
    1.8098    0.8841    0.6283 H   0  0  0  0  0  0  0  0  0  0  0  0
    2.1663   -0.7951    1.1127 H   0  0  0  0  0  0  0  0  0  0  0  0
    0.8146   -1.4798   -1.0817 H   0  0  0  0  0  0  0  0  0  0  0  0
   -1.1960   -1.5747    0.3435 H   0  0  0  0  0  0  0  0  0  0  0  0
   -1.0518    1.4656    0.8990 H   0  0  0  0  0  0  0  0  0  0  0  0
   -2.1918    0.1866    1.6487 H   0  0  0  0  0  0  0  0  0  0  0  0
   -2.3071   -0.8691   -0.7001 H   0  0  0  0  0  0  0  0  0  0  0  0
   -2.4919    0.9583   -1.0461 H   0  0  0  0  0  0  0  0  0  0  0  0
   -0.1714    1.3534   -0.5174 H   0  0  0  0  0  0  0  0  0  0  0  0
  1  2  1  0
  2  3  1  0
  3  4  1  0
  4  5  1  0
  5  6  1  0
  6  7  1  0
  7  3  1  0
  7  4  1  0
  1  8  1  0
  2  9  1  0
  2 10  1  0
  3 11  1  0
  4 12  1  0
  5 13  1  0
  5 14  1  0
  6 15  1  0
  6 16  1  0
  7 17  1  0
M  END
