
     RDKit          3D

 21 22  0  0  0  0  0  0  0  0999 V2000
    2.7005   -0.1073    0.8399 O   0  0  0  0  0  0  0  0  0  0  0  0
    1.7892    0.5119   -0.0419 C   0  0  0  0  0  0  0  0  0  0  0  0
    0.5696   -0.3528   -0.1507 C   0  0  0  0  0  0  0  0  0  0  0  0
    0.8651   -1.6207   -0.6348 O   0  0  0  0  0  0  0  0  0  0  0  0
   -0.1458   -0.4344    1.2131 C   0  0  0  0  0  0  0  0  0  0  0  0
   -1.4784    0.0961    0.8153 C   0  0  0  0  0  0  0  0  0  0  0  0
   -1.1092    1.2898   -0.0726 C   0  0  0  0  0  0  0  0  0  0  0  0
   -0.5287    0.2210   -0.9739 C   0  0  0  0  0  0  0  0  0  0  0  0
   -1.7214   -0.6323   -0.5152 C   0  0  0  0  0  0  0  0  0  0  0  0
    3.3969   -0.6026    0.3367 H   0  0  0  0  0  0  0  0  0  0  0  0
    1.5442    1.4819    0.4326 H   0  0  0  0  0  0  0  0  0  0  0  0
    2.2505    0.7251   -1.0047 H   0  0  0  0  0  0  0  0  0  0  0  0
    1.0732   -1.5116   -1.5973 H   0  0  0  0  0  0  0  0  0  0  0  0
   -0.2471   -1.5080    1.4536 H   0  0  0  0  0  0  0  0  0  0  0  0
    0.3787    0.1460    1.9772 H   0  0  0  0  0  0  0  0  0  0  0  0
   -2.2810    0.1939    1.4880 H   0  0  0  0  0  0  0  0  0  0  0  0
   -2.0197    1.7070   -0.5510 H   0  0  0  0  0  0  0  0  0  0  0  0
   -0.4132    2.0045    0.3594 H   0  0  0  0  0  0  0  0  0  0  0  0
   -0.4231    0.4058   -2.0047 H   0  0  0  0  0  0  0  0  0  0  0  0
   -2.6864   -0.3088   -0.9126 H   0  0  0  0  0  0  0  0  0  0  0  0
   -1.5139   -1.7045   -0.4563 H   0  0  0  0  0  0  0  0  0  0  0  0
  1  2  1  0
  2  3  1  0
  3  4  1  0
  3  5  1  0
  5  6  1  0
  6  7  1  0
  7  8  1  0
  8  9  1  0
  8  3  1  0
  9  6  1  0
  1 10  1  0
  2 11  1  0
  2 12  1  0
  4 13  1  0
  5 14  1  0
  5 15  1  0
  6 16  1  0
  7 17  1  0
  7 18  1  0
  8 19  1  0
  9 20  1  0
  9 21  1  0
M  END
