
     RDKit          3D

 19 20  0  0  0  0  0  0  0  0999 V2000
    2.6587    0.3383    0.5476 O   0  0  0  0  0  0  0  0  0  0  0  0
    1.3738    0.8702    0.4871 C   0  0  0  0  0  0  0  0  0  0  0  0
    0.5859    0.0452   -0.5109 C   0  0  0  0  0  0  0  0  0  0  0  0
    1.1410    0.0654   -1.7873 O   0  0  0  0  0  0  0  0  0  0  0  0
    0.2419   -1.3392   -0.0769 C   0  0  0  0  0  0  0  0  0  0  0  0
   -1.2370   -0.9722   -0.2542 C   0  0  0  0  0  0  0  0  0  0  0  0
   -1.7214    0.0635    0.6633 C   0  0  0  0  0  0  0  0  0  0  0  0
   -3.0469    0.4152    0.6177 O   0  0  0  0  0  0  0  0  0  0  0  0
   -0.8598    0.4457   -0.4818 C   0  0  0  0  0  0  0  0  0  0  0  0
    3.3079    0.9916    0.9431 H   0  0  0  0  0  0  0  0  0  0  0  0
    0.8907    0.8864    1.4658 H   0  0  0  0  0  0  0  0  0  0  0  0
    1.4650    1.9060    0.1006 H   0  0  0  0  0  0  0  0  0  0  0  0
    1.9187   -0.5303   -1.8527 H   0  0  0  0  0  0  0  0  0  0  0  0
    0.4003   -1.5714    0.9980 H   0  0  0  0  0  0  0  0  0  0  0  0
    0.5155   -2.1607   -0.7511 H   0  0  0  0  0  0  0  0  0  0  0  0
   -1.8547   -1.5479   -0.9348 H   0  0  0  0  0  0  0  0  0  0  0  0
   -1.2320    0.1039    1.6712 H   0  0  0  0  0  0  0  0  0  0  0  0
   -3.2956    0.9682   -0.1690 H   0  0  0  0  0  0  0  0  0  0  0  0
   -1.2519    1.0221   -1.3428 H   0  0  0  0  0  0  0  0  0  0  0  0
  1  2  1  0
  2  3  1  0
  3  4  1  0
  3  5  1  0
  5  6  1  0
  6  7  1  0
  7  8  1  0
  7  9  1  0
  9  3  1  0
  9  6  1  0
  1 10  1  0
  2 11  1  0
  2 12  1  0
  4 13  1  0
  5 14  1  0
  5 15  1  0
  6 16  1  0
  7 17  1  0
  8 18  1  0
  9 19  1  0
M  END
