
     RDKit          3D

 19 21  0  0  0  0  0  0  0  0999 V2000
   -2.5082    0.2093   -1.1296 O   0  0  0  0  0  0  0  0  0  0  0  0
   -1.8094   -0.1995    0.0061 C   0  0  0  0  0  0  0  0  0  0  0  0
   -0.4290    0.1767    0.0599 C   0  0  0  0  0  0  0  0  0  0  0  0
    0.6614   -0.1679   -0.8734 C   0  0  0  0  0  0  0  0  0  0  0  0
    1.4189   -1.2227   -0.0992 C   0  0  0  0  0  0  0  0  0  0  0  0
    1.0833   -1.0977    1.2181 O   0  0  0  0  0  0  0  0  0  0  0  0
    0.2663   -0.0340    1.4208 C   0  0  0  0  0  0  0  0  0  0  0  0
    0.3170    1.2219    0.6526 C   0  0  0  0  0  0  0  0  0  0  0  0
    1.2842    1.1994   -0.5446 C   0  0  0  0  0  0  0  0  0  0  0  0
   -3.1572   -0.4751   -1.4342 H   0  0  0  0  0  0  0  0  0  0  0  0
   -2.3493    0.1481    0.9182 H   0  0  0  0  0  0  0  0  0  0  0  0
   -1.9050   -1.3270    0.0166 H   0  0  0  0  0  0  0  0  0  0  0  0
    0.4588   -0.3539   -1.9162 H   0  0  0  0  0  0  0  0  0  0  0  0
    2.4935   -1.0776   -0.2667 H   0  0  0  0  0  0  0  0  0  0  0  0
    1.1281   -2.2046   -0.5421 H   0  0  0  0  0  0  0  0  0  0  0  0
   -0.3694   -0.0566    2.3140 H   0  0  0  0  0  0  0  0  0  0  0  0
    0.0049    2.1665    1.0694 H   0  0  0  0  0  0  0  0  0  0  0  0
    2.3429    1.1281   -0.2214 H   0  0  0  0  0  0  0  0  0  0  0  0
    1.0683    1.9667   -1.2955 H   0  0  0  0  0  0  0  0  0  0  0  0
  1  2  1  0
  2  3  1  0
  3  4  1  0
  4  5  1  0
  5  6  1  0
  6  7  1  0
  7  8  1  0
  8  9  1  0
  7  3  1  0
  8  3  1  0
  9  4  1  0
  1 10  1  0
  2 11  1  0
  2 12  1  0
  4 13  1  0
  5 14  1  0
  5 15  1  0
  7 16  1  0
  8 17  1  0
  9 18  1  0
  9 19  1  0
M  END
