
     RDKit          3D

 21 22  0  0  0  0  0  0  0  0999 V2000
   -1.5605   -0.1607   -1.4153 O   0  0  0  0  0  0  0  0  0  0  0  0
   -1.7892   -0.7057   -0.1797 C   0  0  0  0  0  0  0  0  0  0  0  0
   -0.6418   -0.5702    0.7810 C   0  0  0  0  0  0  0  0  0  0  0  0
   -0.3115    0.8913    1.0148 C   0  0  0  0  0  0  0  0  0  0  0  0
    0.7220    1.1433   -0.0508 C   0  0  0  0  0  0  0  0  0  0  0  0
    1.4619    2.2863    0.1882 O   0  0  0  0  0  0  0  0  0  0  0  0
    1.5811   -0.0993    0.0113 C   0  0  0  0  0  0  0  0  0  0  0  0
    1.2116   -1.1678   -0.9508 C   0  0  0  0  0  0  0  0  0  0  0  0
    0.6042   -1.2402    0.3737 C   0  0  0  0  0  0  0  0  0  0  0  0
   -2.1929    0.5976   -1.6273 H   0  0  0  0  0  0  0  0  0  0  0  0
   -2.1020   -1.7458   -0.2670 H   0  0  0  0  0  0  0  0  0  0  0  0
   -2.6532   -0.1502    0.2871 H   0  0  0  0  0  0  0  0  0  0  0  0
   -0.9954   -0.9581    1.7643 H   0  0  0  0  0  0  0  0  0  0  0  0
   -1.1836    1.5496    0.9525 H   0  0  0  0  0  0  0  0  0  0  0  0
    0.2106    0.9363    2.0001 H   0  0  0  0  0  0  0  0  0  0  0  0
    0.2877    1.2283   -1.0599 H   0  0  0  0  0  0  0  0  0  0  0  0
    1.1762    3.0215   -0.4310 H   0  0  0  0  0  0  0  0  0  0  0  0
    2.5231   -0.0878    0.5587 H   0  0  0  0  0  0  0  0  0  0  0  0
    0.6294   -0.8530   -1.8521 H   0  0  0  0  0  0  0  0  0  0  0  0
    1.9962   -1.9146   -1.1927 H   0  0  0  0  0  0  0  0  0  0  0  0
    1.0257   -2.0008    1.0947 H   0  0  0  0  0  0  0  0  0  0  0  0
  1  2  1  0
  2  3  1  0
  3  4  1  0
  4  5  1  0
  5  6  1  0
  5  7  1  0
  7  8  1  0
  8  9  1  0
  9  3  1  0
  9  7  1  0
  1 10  1  0
  2 11  1  0
  2 12  1  0
  3 13  1  0
  4 14  1  0
  4 15  1  0
  5 16  1  0
  6 17  1  0
  7 18  1  0
  8 19  1  0
  8 20  1  0
  9 21  1  0
M  END
