
     RDKit          3D

 19 21  0  0  0  0  0  0  0  0999 V2000
    2.4460    0.7790    0.6361 O   0  0  0  0  0  0  0  0  0  0  0  0
    1.9188    0.0013   -0.4193 C   0  0  0  0  0  0  0  0  0  0  0  0
    0.4562   -0.0526   -0.2488 C   0  0  0  0  0  0  0  0  0  0  0  0
   -0.3905    1.2018   -0.2516 C   0  0  0  0  0  0  0  0  0  0  0  0
   -1.7654    0.5331   -0.2115 C   0  0  0  0  0  0  0  0  0  0  0  0
   -1.5866   -0.3405    1.0226 C   0  0  0  0  0  0  0  0  0  0  0  0
   -0.2759   -1.0136    0.5799 C   0  0  0  0  0  0  0  0  0  0  0  0
   -0.4307   -1.0466   -0.8870 C   0  0  0  0  0  0  0  0  0  0  0  0
   -1.6421   -0.3906   -1.2172 O   0  0  0  0  0  0  0  0  0  0  0  0
    3.4075    0.6338    0.7285 H   0  0  0  0  0  0  0  0  0  0  0  0
    2.2179    0.4355   -1.3926 H   0  0  0  0  0  0  0  0  0  0  0  0
    2.4115   -0.9871   -0.3203 H   0  0  0  0  0  0  0  0  0  0  0  0
   -0.1749    1.7503    0.6797 H   0  0  0  0  0  0  0  0  0  0  0  0
   -0.2506    1.8034   -1.1648 H   0  0  0  0  0  0  0  0  0  0  0  0
   -2.5953    1.1876   -0.2066 H   0  0  0  0  0  0  0  0  0  0  0  0
   -1.4444    0.2534    1.9391 H   0  0  0  0  0  0  0  0  0  0  0  0
   -2.3764   -1.0887    1.0728 H   0  0  0  0  0  0  0  0  0  0  0  0
    0.1544   -1.7975    1.1802 H   0  0  0  0  0  0  0  0  0  0  0  0
   -0.0794   -1.8620   -1.5194 H   0  0  0  0  0  0  0  0  0  0  0  0
  1  2  1  0
  2  3  1  0
  3  4  1  0
  4  5  1  0
  5  6  1  0
  6  7  1  0
  7  8  1  0
  8  9  1  0
  7  3  1  0
  8  3  1  0
  9  5  1  0
  1 10  1  0
  2 11  1  0
  2 12  1  0
  4 13  1  0
  4 14  1  0
  5 15  1  0
  6 16  1  0
  6 17  1  0
  7 18  1  0
  8 19  1  0
M  END
