
     RDKit          3D

 19 20  0  0  0  0  0  0  0  0999 V2000
    2.6876   -0.3572   -1.4391 O   0  0  0  0  0  0  0  0  0  0  0  0
    1.9848    0.4706   -0.6029 C   0  0  0  0  0  0  0  0  0  0  0  0
    0.6178    0.0290   -0.3132 C   0  0  0  0  0  0  0  0  0  0  0  0
   -0.0201   -1.0580   -0.7518 C   0  0  0  0  0  0  0  0  0  0  0  0
   -1.3505   -1.1640   -0.0540 C   0  0  0  0  0  0  0  0  0  0  0  0
   -0.9379   -0.5133    1.2788 C   0  0  0  0  0  0  0  0  0  0  0  0
   -0.3674    0.7251    0.5567 C   0  0  0  0  0  0  0  0  0  0  0  0
   -1.5836    1.0524   -0.2723 C   0  0  0  0  0  0  0  0  0  0  0  0
   -2.1839   -0.1841   -0.5670 O   0  0  0  0  0  0  0  0  0  0  0  0
    3.5636   -0.6045   -1.0666 H   0  0  0  0  0  0  0  0  0  0  0  0
    2.5435    0.5439    0.3573 H   0  0  0  0  0  0  0  0  0  0  0  0
    2.0001    1.5114   -1.0235 H   0  0  0  0  0  0  0  0  0  0  0  0
    0.3692   -1.7455   -1.4922 H   0  0  0  0  0  0  0  0  0  0  0  0
   -1.7504   -2.1398    0.0354 H   0  0  0  0  0  0  0  0  0  0  0  0
   -0.0880   -1.0058    1.7351 H   0  0  0  0  0  0  0  0  0  0  0  0
   -1.7806   -0.2746    1.9065 H   0  0  0  0  0  0  0  0  0  0  0  0
    0.0019    1.4781    1.2008 H   0  0  0  0  0  0  0  0  0  0  0  0
   -1.3791    1.6533   -1.1563 H   0  0  0  0  0  0  0  0  0  0  0  0
   -2.3269    1.5831    0.3872 H   0  0  0  0  0  0  0  0  0  0  0  0
  1  2  1  0
  2  3  1  0
  3  4  2  0
  4  5  1  0
  5  6  1  0
  6  7  1  0
  7  8  1  0
  8  9  1  0
  7  3  1  0
  9  5  1  0
  1 10  1  0
  2 11  1  0
  2 12  1  0
  4 13  1  0
  5 14  1  0
  6 15  1  0
  6 16  1  0
  7 17  1  0
  8 18  1  0
  8 19  1  0
M  END
