
     RDKit          3D

 18 18  0  0  0  0  0  0  0  0999 V2000
    1.5505   -1.2561   -0.8058 O   0  0  0  0  0  0  0  0  0  0  0  0
    1.4451   -0.0433   -0.1420 C   0  0  0  0  0  0  0  0  0  0  0  0
   -0.0261    0.2171    0.1159 C   0  0  0  0  0  0  0  0  0  0  0  0
   -0.6945   -0.8210    0.9472 C   0  0  0  0  0  0  0  0  0  0  0  0
   -0.5824   -2.0447    0.2723 O   0  0  0  0  0  0  0  0  0  0  0  0
   -0.2586    1.6486    0.4851 C   0  0  0  0  0  0  0  0  0  0  0  0
   -1.2979    1.7094   -0.4340 O   0  0  0  0  0  0  0  0  0  0  0  0
   -0.8325    0.5625   -1.0947 C   0  0  0  0  0  0  0  0  0  0  0  0
    2.1004   -1.9184   -0.3018 H   0  0  0  0  0  0  0  0  0  0  0  0
    1.9734   -0.1359    0.8260 H   0  0  0  0  0  0  0  0  0  0  0  0
    1.9246    0.7970   -0.6789 H   0  0  0  0  0  0  0  0  0  0  0  0
   -0.3658   -0.8774    1.9827 H   0  0  0  0  0  0  0  0  0  0  0  0
   -1.7936   -0.5889    0.9512 H   0  0  0  0  0  0  0  0  0  0  0  0
   -1.1927   -2.0077   -0.5254 H   0  0  0  0  0  0  0  0  0  0  0  0
    0.5655    2.3378    0.1929 H   0  0  0  0  0  0  0  0  0  0  0  0
   -0.5335    1.7407    1.5435 H   0  0  0  0  0  0  0  0  0  0  0  0
   -0.2720    0.7690   -2.0256 H   0  0  0  0  0  0  0  0  0  0  0  0
   -1.7098   -0.0887   -1.3085 H   0  0  0  0  0  0  0  0  0  0  0  0
  1  2  1  0
  2  3  1  0
  3  4  1  0
  4  5  1  0
  3  6  1  0
  6  7  1  0
  7  8  1  0
  8  3  1  0
  1  9  1  0
  2 10  1  0
  2 11  1  0
  4 12  1  0
  4 13  1  0
  5 14  1  0
  6 15  1  0
  6 16  1  0
  8 17  1  0
  8 18  1  0
M  END
