
     RDKit          3D

 19 20  0  0  0  0  0  0  0  0999 V2000
    2.7273    0.2977   -0.2936 O   0  0  0  0  0  0  0  0  0  0  0  0
    1.9279   -0.4691    0.5419 C   0  0  0  0  0  0  0  0  0  0  0  0
    0.4951   -0.2265    0.2524 C   0  0  0  0  0  0  0  0  0  0  0  0
    0.1022    1.2002    0.1629 C   0  0  0  0  0  0  0  0  0  0  0  0
   -1.1700    1.4616   -0.0727 C   0  0  0  0  0  0  0  0  0  0  0  0
   -2.0898    0.2767    0.0223 C   0  0  0  0  0  0  0  0  0  0  0  0
   -1.2618   -0.9590   -0.0440 C   0  0  0  0  0  0  0  0  0  0  0  0
   -0.0825   -0.8862   -0.9775 C   0  0  0  0  0  0  0  0  0  0  0  0
   -0.3821   -0.9606    1.0506 O   0  0  0  0  0  0  0  0  0  0  0  0
    3.3409    0.8993    0.2051 H   0  0  0  0  0  0  0  0  0  0  0  0
    2.1317   -0.1626    1.5895 H   0  0  0  0  0  0  0  0  0  0  0  0
    2.1601   -1.5427    0.4790 H   0  0  0  0  0  0  0  0  0  0  0  0
    0.8390    1.9628    0.2879 H   0  0  0  0  0  0  0  0  0  0  0  0
   -1.5542    2.4520   -0.3199 H   0  0  0  0  0  0  0  0  0  0  0  0
   -2.9019    0.3207   -0.7075 H   0  0  0  0  0  0  0  0  0  0  0  0
   -2.5348    0.3231    1.0563 H   0  0  0  0  0  0  0  0  0  0  0  0
   -1.8081   -1.9156   -0.1643 H   0  0  0  0  0  0  0  0  0  0  0  0
   -0.2358   -0.1979   -1.8405 H   0  0  0  0  0  0  0  0  0  0  0  0
    0.2969   -1.8737   -1.2278 H   0  0  0  0  0  0  0  0  0  0  0  0
  1  2  1  0
  2  3  1  0
  3  4  1  0
  4  5  2  0
  5  6  1  0
  6  7  1  0
  7  8  1  0
  7  9  1  0
  8  3  1  0
  9  3  1  0
  1 10  1  0
  2 11  1  0
  2 12  1  0
  4 13  1  0
  5 14  1  0
  6 15  1  0
  6 16  1  0
  7 17  1  0
  8 18  1  0
  8 19  1  0
M  END
