
     RDKit          3D

 19 20  0  0  0  0  0  0  0  0999 V2000
   -2.5676   -0.5071    0.7720 O   0  0  0  0  0  0  0  0  0  0  0  0
   -1.9135    0.1605   -0.2313 C   0  0  0  0  0  0  0  0  0  0  0  0
   -0.4477   -0.0339   -0.1578 C   0  0  0  0  0  0  0  0  0  0  0  0
    0.3850    0.8255   -1.0883 C   0  0  0  0  0  0  0  0  0  0  0  0
    1.4221    0.8133    0.0444 C   0  0  0  0  0  0  0  0  0  0  0  0
    0.2186    0.7235    0.9914 C   0  0  0  0  0  0  0  0  0  0  0  0
    2.0926   -0.3743    0.1007 O   0  0  0  0  0  0  0  0  0  0  0  0
    1.3265   -1.4925    0.0218 C   0  0  0  0  0  0  0  0  0  0  0  0
    0.0064   -1.3229   -0.2552 O   0  0  0  0  0  0  0  0  0  0  0  0
   -2.1783   -1.3557    1.0369 H   0  0  0  0  0  0  0  0  0  0  0  0
   -2.2797   -0.1634   -1.2241 H   0  0  0  0  0  0  0  0  0  0  0  0
   -2.1251    1.2541   -0.1143 H   0  0  0  0  0  0  0  0  0  0  0  0
   -0.0257    1.8443   -1.1667 H   0  0  0  0  0  0  0  0  0  0  0  0
    0.7296    0.3424   -2.0070 H   0  0  0  0  0  0  0  0  0  0  0  0
    2.0306    1.6979    0.1355 H   0  0  0  0  0  0  0  0  0  0  0  0
   -0.2390    1.7187    1.0886 H   0  0  0  0  0  0  0  0  0  0  0  0
    0.3868    0.1437    1.8979 H   0  0  0  0  0  0  0  0  0  0  0  0
    1.7610   -2.1453   -0.7915 H   0  0  0  0  0  0  0  0  0  0  0  0
    1.4172   -2.1289    0.9470 H   0  0  0  0  0  0  0  0  0  0  0  0
  1  2  1  0
  2  3  1  0
  3  4  1  0
  4  5  1  0
  5  6  1  0
  5  7  1  0
  7  8  1  0
  8  9  1  0
  6  3  1  0
  9  3  1  0
  1 10  1  0
  2 11  1  0
  2 12  1  0
  4 13  1  0
  4 14  1  0
  5 15  1  0
  6 16  1  0
  6 17  1  0
  8 18  1  0
  8 19  1  0
M  END
