
     RDKit          3D

 19 20  0  0  0  0  0  0  0  0999 V2000
    2.7164    1.0445    0.4541 O   0  0  0  0  0  0  0  0  0  0  0  0
    1.8802   -0.0296    0.6213 C   0  0  0  0  0  0  0  0  0  0  0  0
    0.7010   -0.0364   -0.3259 C   0  0  0  0  0  0  0  0  0  0  0  0
   -0.1106   -1.2971    0.0074 C   0  0  0  0  0  0  0  0  0  0  0  0
   -1.1128   -1.3426   -0.9773 O   0  0  0  0  0  0  0  0  0  0  0  0
   -2.1089   -0.4707   -0.5693 C   0  0  0  0  0  0  0  0  0  0  0  0
   -1.6274    0.8889   -0.2153 C   0  0  0  0  0  0  0  0  0  0  0  0
   -0.9430    1.6696   -1.1244 O   0  0  0  0  0  0  0  0  0  0  0  0
   -0.2306    1.1198   -0.0696 C   0  0  0  0  0  0  0  0  0  0  0  0
    3.5695    0.8247    0.0097 H   0  0  0  0  0  0  0  0  0  0  0  0
    1.4890   -0.0066    1.6546 H   0  0  0  0  0  0  0  0  0  0  0  0
    2.4623   -0.9634    0.4883 H   0  0  0  0  0  0  0  0  0  0  0  0
    1.0217   -0.1116   -1.3819 H   0  0  0  0  0  0  0  0  0  0  0  0
    0.5503   -2.1624   -0.0142 H   0  0  0  0  0  0  0  0  0  0  0  0
   -0.5550   -1.0918    1.0149 H   0  0  0  0  0  0  0  0  0  0  0  0
   -2.5696   -0.9206    0.3430 H   0  0  0  0  0  0  0  0  0  0  0  0
   -2.9168   -0.3807   -1.3216 H   0  0  0  0  0  0  0  0  0  0  0  0
   -2.3371    1.4640    0.4464 H   0  0  0  0  0  0  0  0  0  0  0  0
    0.1214    1.8017    0.7487 H   0  0  0  0  0  0  0  0  0  0  0  0
  1  2  1  0
  2  3  1  0
  3  4  1  0
  4  5  1  0
  5  6  1  0
  6  7  1  0
  7  8  1  0
  8  9  1  0
  9  3  1  0
  9  7  1  0
  1 10  1  0
  2 11  1  0
  2 12  1  0
  3 13  1  0
  4 14  1  0
  4 15  1  0
  6 16  1  0
  6 17  1  0
  7 18  1  0
  9 19  1  0
M  END
