
     RDKit          3D

 21 21  0  0  0  0  0  0  0  0999 V2000
   -2.3718   -1.7169    0.3741 O   0  0  0  0  0  0  0  0  0  0  0  0
   -1.9491   -0.5969   -0.3158 C   0  0  0  0  0  0  0  0  0  0  0  0
   -1.2747    0.3403    0.6663 C   0  0  0  0  0  0  0  0  0  0  0  0
   -0.8261    1.5588   -0.1384 C   0  0  0  0  0  0  0  0  0  0  0  0
    0.2021    0.9564   -0.9014 O   0  0  0  0  0  0  0  0  0  0  0  0
    1.0052    0.4685    0.1276 C   0  0  0  0  0  0  0  0  0  0  0  0
    2.1054   -0.4209   -0.3933 C   0  0  0  0  0  0  0  0  0  0  0  0
    2.8805    0.3524   -1.2661 O   0  0  0  0  0  0  0  0  0  0  0  0
    0.0641   -0.2556    1.0547 C   0  0  0  0  0  0  0  0  0  0  0  0
   -2.0740   -2.5381   -0.1120 H   0  0  0  0  0  0  0  0  0  0  0  0
   -1.2254   -0.8753   -1.0997 H   0  0  0  0  0  0  0  0  0  0  0  0
   -2.7924   -0.0752   -0.8116 H   0  0  0  0  0  0  0  0  0  0  0  0
   -1.9014    0.5936    1.5141 H   0  0  0  0  0  0  0  0  0  0  0  0
   -1.6148    1.9802   -0.7528 H   0  0  0  0  0  0  0  0  0  0  0  0
   -0.3467    2.2782    0.5583 H   0  0  0  0  0  0  0  0  0  0  0  0
    1.4866    1.3222    0.6475 H   0  0  0  0  0  0  0  0  0  0  0  0
    1.7479   -1.3484   -0.8429 H   0  0  0  0  0  0  0  0  0  0  0  0
    2.7150   -0.7157    0.5073 H   0  0  0  0  0  0  0  0  0  0  0  0
    3.8139   -0.0064   -1.3154 H   0  0  0  0  0  0  0  0  0  0  0  0
    0.1058   -1.3412    0.9412 H   0  0  0  0  0  0  0  0  0  0  0  0
    0.2500    0.0399    2.1269 H   0  0  0  0  0  0  0  0  0  0  0  0
  1  2  1  0
  2  3  1  0
  3  4  1  0
  4  5  1  0
  5  6  1  0
  6  7  1  0
  7  8  1  0
  6  9  1  0
  9  3  1  0
  1 10  1  0
  2 11  1  0
  2 12  1  0
  3 13  1  0
  4 14  1  0
  4 15  1  0
  6 16  1  0
  7 17  1  0
  7 18  1  0
  8 19  1  0
  9 20  1  0
  9 21  1  0
M  END
