
     RDKit          3D

 19 20  0  0  0  0  0  0  0  0999 V2000
    3.1075   -0.0814    0.5954 O   0  0  0  0  0  0  0  0  0  0  0  0
    2.2662   -0.0949   -0.5170 C   0  0  0  0  0  0  0  0  0  0  0  0
    0.8944    0.3429   -0.0833 C   0  0  0  0  0  0  0  0  0  0  0  0
    0.0564   -0.7827    0.5409 C   0  0  0  0  0  0  0  0  0  0  0  0
   -0.9719   -0.0070   -0.1628 C   0  0  0  0  0  0  0  0  0  0  0  0
   -1.7611    1.0066    0.5428 C   0  0  0  0  0  0  0  0  0  0  0  0
   -2.8187    0.0705    0.6142 O   0  0  0  0  0  0  0  0  0  0  0  0
   -2.2585   -0.5638   -0.5222 C   0  0  0  0  0  0  0  0  0  0  0  0
   -0.0588    0.3777   -1.1035 O   0  0  0  0  0  0  0  0  0  0  0  0
    3.9925    0.2845    0.3467 H   0  0  0  0  0  0  0  0  0  0  0  0
    2.7047    0.5292   -1.2910 H   0  0  0  0  0  0  0  0  0  0  0  0
    2.1947   -1.1764   -0.8185 H   0  0  0  0  0  0  0  0  0  0  0  0
    0.8532    1.2167    0.5717 H   0  0  0  0  0  0  0  0  0  0  0  0
    0.0696   -0.8150    1.6295 H   0  0  0  0  0  0  0  0  0  0  0  0
    0.2980   -1.7514    0.0268 H   0  0  0  0  0  0  0  0  0  0  0  0
   -1.3651    1.3169    1.5246 H   0  0  0  0  0  0  0  0  0  0  0  0
   -2.0653    1.8545   -0.0814 H   0  0  0  0  0  0  0  0  0  0  0  0
   -2.7298   -0.0672   -1.4171 H   0  0  0  0  0  0  0  0  0  0  0  0
   -2.4081   -1.6596   -0.5055 H   0  0  0  0  0  0  0  0  0  0  0  0
  1  2  1  0
  2  3  1  0
  3  4  1  0
  4  5  1  0
  5  6  1  0
  6  7  1  0
  7  8  1  0
  5  9  1  0
  9  3  1  0
  8  5  1  0
  1 10  1  0
  2 11  1  0
  2 12  1  0
  3 13  1  0
  4 14  1  0
  4 15  1  0
  6 16  1  0
  6 17  1  0
  8 18  1  0
  8 19  1  0
M  END
