
     RDKit          3D

 17 19  0  0  0  0  0  0  0  0999 V2000
    3.0111   -0.5946    0.3242 O   0  0  0  0  0  0  0  0  0  0  0  0
    1.9056   -0.4226   -0.5063 C   0  0  0  0  0  0  0  0  0  0  0  0
    0.6914    0.0687    0.2195 C   0  0  0  0  0  0  0  0  0  0  0  0
    0.7059    1.2707    0.8901 O   0  0  0  0  0  0  0  0  0  0  0  0
    0.0516    1.3533   -0.3196 C   0  0  0  0  0  0  0  0  0  0  0  0
   -1.2680    0.6408   -0.4158 C   0  0  0  0  0  0  0  0  0  0  0  0
   -1.7603   -0.0350    0.8378 C   0  0  0  0  0  0  0  0  0  0  0  0
   -3.0171   -0.6184    0.7070 O   0  0  0  0  0  0  0  0  0  0  0  0
   -0.6365   -0.5976    0.0487 C   0  0  0  0  0  0  0  0  0  0  0  0
    3.1218    0.1584    0.9693 H   0  0  0  0  0  0  0  0  0  0  0  0
    1.6659   -1.4185   -0.9370 H   0  0  0  0  0  0  0  0  0  0  0  0
    2.1750    0.2652   -1.3088 H   0  0  0  0  0  0  0  0  0  0  0  0
    0.5247    1.7802   -1.1973 H   0  0  0  0  0  0  0  0  0  0  0  0
   -1.9190    0.7381   -1.2729 H   0  0  0  0  0  0  0  0  0  0  0  0
   -1.5532    0.5871    1.7568 H   0  0  0  0  0  0  0  0  0  0  0  0
   -2.9637   -1.6165    0.6541 H   0  0  0  0  0  0  0  0  0  0  0  0
   -0.7351   -1.5595   -0.4498 H   0  0  0  0  0  0  0  0  0  0  0  0
  1  2  1  0
  2  3  1  0
  3  4  1  0
  4  5  1  0
  5  6  1  0
  6  7  1  0
  7  8  1  0
  7  9  1  0
  5  3  1  0
  9  6  1  0
  9  3  1  0
  1 10  1  0
  2 11  1  0
  2 12  1  0
  5 13  1  0
  6 14  1  0
  7 15  1  0
  8 16  1  0
  9 17  1  0
M  END
