
     RDKit          3D

 19 21  0  0  0  0  0  0  0  0999 V2000
    2.2035   -0.8479    1.1624 O   0  0  0  0  0  0  0  0  0  0  0  0
    1.5041   -0.9453   -0.0494 C   0  0  0  0  0  0  0  0  0  0  0  0
    0.3920   -0.0131   -0.0586 C   0  0  0  0  0  0  0  0  0  0  0  0
    0.6565    1.4365    0.0830 C   0  0  0  0  0  0  0  0  0  0  0  0
   -0.5761    1.9757    0.0505 C   0  0  0  0  0  0  0  0  0  0  0  0
   -1.4457    0.7972   -0.1225 C   0  0  0  0  0  0  0  0  0  0  0  0
   -0.8019   -0.2204    0.7892 C   0  0  0  0  0  0  0  0  0  0  0  0
   -1.2583   -1.2284   -0.2189 C   0  0  0  0  0  0  0  0  0  0  0  0
   -0.7102   -0.1147   -1.0597 C   0  0  0  0  0  0  0  0  0  0  0  0
    2.9478   -0.1963    1.0925 H   0  0  0  0  0  0  0  0  0  0  0  0
    2.2723   -0.6769   -0.8345 H   0  0  0  0  0  0  0  0  0  0  0  0
    1.2362   -1.9917   -0.2603 H   0  0  0  0  0  0  0  0  0  0  0  0
    1.6245    1.8962    0.1844 H   0  0  0  0  0  0  0  0  0  0  0  0
   -0.8517    3.0222    0.1324 H   0  0  0  0  0  0  0  0  0  0  0  0
   -2.5006    0.8855   -0.1597 H   0  0  0  0  0  0  0  0  0  0  0  0
   -0.8850   -0.2621    1.7839 H   0  0  0  0  0  0  0  0  0  0  0  0
   -2.3785   -1.2641   -0.2297 H   0  0  0  0  0  0  0  0  0  0  0  0
   -0.7682   -2.1928   -0.2300 H   0  0  0  0  0  0  0  0  0  0  0  0
   -0.6608   -0.0595   -2.0549 H   0  0  0  0  0  0  0  0  0  0  0  0
  1  2  1  0
  2  3  1  0
  3  4  1  0
  4  5  2  0
  5  6  1  0
  6  7  1  0
  7  8  1  0
  8  9  1  0
  7  3  1  0
  9  3  1  0
  9  6  1  0
  1 10  1  0
  2 11  1  0
  2 12  1  0
  4 13  1  0
  5 14  1  0
  6 15  1  0
  7 16  1  0
  8 17  1  0
  8 18  1  0
  9 19  1  0
M  END
