
     RDKit          3D

 19 20  0  0  0  0  0  0  0  0999 V2000
   -3.0841    0.2368    0.4792 O   0  0  0  0  0  0  0  0  0  0  0  0
   -2.1006   -0.4991   -0.1806 C   0  0  0  0  0  0  0  0  0  0  0  0
   -0.7793    0.1705    0.0525 C   0  0  0  0  0  0  0  0  0  0  0  0
   -0.4128    0.2559    1.4870 C   0  0  0  0  0  0  0  0  0  0  0  0
    0.9084    0.1857    1.5889 C   0  0  0  0  0  0  0  0  0  0  0  0
    1.5154    0.0492    0.2398 C   0  0  0  0  0  0  0  0  0  0  0  0
    2.7063    0.4826   -0.2388 C   0  0  0  0  0  0  0  0  0  0  0  0
    1.6706    1.4218   -0.3210 O   0  0  0  0  0  0  0  0  0  0  0  0
    0.3849   -0.6190   -0.5072 C   0  0  0  0  0  0  0  0  0  0  0  0
   -3.4559   -0.2466    1.2679 H   0  0  0  0  0  0  0  0  0  0  0  0
   -2.1261   -1.5466    0.1342 H   0  0  0  0  0  0  0  0  0  0  0  0
   -2.3251   -0.3943   -1.2721 H   0  0  0  0  0  0  0  0  0  0  0  0
   -0.7143    1.1762   -0.3662 H   0  0  0  0  0  0  0  0  0  0  0  0
   -1.1251    0.3573    2.2861 H   0  0  0  0  0  0  0  0  0  0  0  0
    1.4555    0.2235    2.5240 H   0  0  0  0  0  0  0  0  0  0  0  0
    3.1476    0.1105   -1.1837 H   0  0  0  0  0  0  0  0  0  0  0  0
    3.5191    0.8419    0.4579 H   0  0  0  0  0  0  0  0  0  0  0  0
    0.4802   -0.5369   -1.5948 H   0  0  0  0  0  0  0  0  0  0  0  0
    0.3353   -1.6694   -0.1448 H   0  0  0  0  0  0  0  0  0  0  0  0
  1  2  1  0
  2  3  1  0
  3  4  1  0
  4  5  2  0
  5  6  1  0
  6  7  1  0
  7  8  1  0
  6  9  1  0
  9  3  1  0
  8  6  1  0
  1 10  1  0
  2 11  1  0
  2 12  1  0
  3 13  1  0
  4 14  1  0
  5 15  1  0
  7 16  1  0
  7 17  1  0
  9 18  1  0
  9 19  1  0
M  END
