
     RDKit          3D

 23 24  0  0  0  0  0  0  0  0999 V2000
    3.1637    0.0428   -0.0294 O   0  0  0  0  0  0  0  0  0  0  0  0
    2.0505   -0.2194   -0.8243 C   0  0  0  0  0  0  0  0  0  0  0  0
    0.7873   -0.2842   -0.0005 C   0  0  0  0  0  0  0  0  0  0  0  0
    0.5009    0.9873    0.7287 C   0  0  0  0  0  0  0  0  0  0  0  0
   -0.8699    0.8603    1.3640 C   0  0  0  0  0  0  0  0  0  0  0  0
   -1.8319    0.1380    0.4644 C   0  0  0  0  0  0  0  0  0  0  0  0
   -1.4109   -1.3008    0.2241 C   0  0  0  0  0  0  0  0  0  0  0  0
   -0.4010   -0.7289   -0.7818 C   0  0  0  0  0  0  0  0  0  0  0  0
   -1.4126    0.3891   -0.9860 C   0  0  0  0  0  0  0  0  0  0  0  0
    4.0035   -0.2767   -0.4364 H   0  0  0  0  0  0  0  0  0  0  0  0
    2.2534   -1.1619   -1.3607 H   0  0  0  0  0  0  0  0  0  0  0  0
    1.9423    0.5872   -1.5900 H   0  0  0  0  0  0  0  0  0  0  0  0
    0.9764   -1.0734    0.7857 H   0  0  0  0  0  0  0  0  0  0  0  0
    1.2789    1.1458    1.5276 H   0  0  0  0  0  0  0  0  0  0  0  0
    0.5721    1.8940    0.0876 H   0  0  0  0  0  0  0  0  0  0  0  0
   -0.7863    0.3986    2.3596 H   0  0  0  0  0  0  0  0  0  0  0  0
   -1.2565    1.8875    1.5046 H   0  0  0  0  0  0  0  0  0  0  0  0
   -2.8899    0.3117    0.6325 H   0  0  0  0  0  0  0  0  0  0  0  0
   -2.2440   -1.8482   -0.2504 H   0  0  0  0  0  0  0  0  0  0  0  0
   -0.9723   -1.8228    1.0665 H   0  0  0  0  0  0  0  0  0  0  0  0
   -0.2442   -1.3804   -1.6392 H   0  0  0  0  0  0  0  0  0  0  0  0
   -2.2104    0.0815   -1.6638 H   0  0  0  0  0  0  0  0  0  0  0  0
   -0.9991    1.3728   -1.1829 H   0  0  0  0  0  0  0  0  0  0  0  0
  1  2  1  0
  2  3  1  0
  3  4  1  0
  4  5  1  0
  5  6  1  0
  6  7  1  0
  7  8  1  0
  8  9  1  0
  8  3  1  0
  9  6  1  0
  1 10  1  0
  2 11  1  0
  2 12  1  0
  3 13  1  0
  4 14  1  0
  4 15  1  0
  5 16  1  0
  5 17  1  0
  6 18  1  0
  7 19  1  0
  7 20  1  0
  8 21  1  0
  9 22  1  0
  9 23  1  0
M  END
