
     RDKit          3D

 19 20  0  0  0  0  0  0  0  0999 V2000
   -1.6194    1.1363    0.9603 O   0  0  0  0  0  0  0  0  0  0  0  0
   -2.0256    0.1145    0.1535 C   0  0  0  0  0  0  0  0  0  0  0  0
   -0.9714   -0.7230   -0.4747 C   0  0  0  0  0  0  0  0  0  0  0  0
    0.0641   -0.1777   -1.3873 C   0  0  0  0  0  0  0  0  0  0  0  0
    0.4307   -0.8253   -0.0908 C   0  0  0  0  0  0  0  0  0  0  0  0
    0.9857   -2.1485   -0.1262 O   0  0  0  0  0  0  0  0  0  0  0  0
    1.1677    0.0131    0.8788 C   0  0  0  0  0  0  0  0  0  0  0  0
    2.0107    1.1135    0.2839 C   0  0  0  0  0  0  0  0  0  0  0  0
    0.9075    1.3514    1.1042 O   0  0  0  0  0  0  0  0  0  0  0  0
   -2.1105    1.9613    0.8203 H   0  0  0  0  0  0  0  0  0  0  0  0
   -2.7528   -0.5715    0.6746 H   0  0  0  0  0  0  0  0  0  0  0  0
   -2.6360    0.5800   -0.6697 H   0  0  0  0  0  0  0  0  0  0  0  0
   -1.4255   -1.6930   -0.8782 H   0  0  0  0  0  0  0  0  0  0  0  0
    0.1053    0.9122   -1.4927 H   0  0  0  0  0  0  0  0  0  0  0  0
    0.3848   -0.7710   -2.2793 H   0  0  0  0  0  0  0  0  0  0  0  0
    0.9205   -2.4475    0.8260 H   0  0  0  0  0  0  0  0  0  0  0  0
    1.6443   -0.5263    1.7378 H   0  0  0  0  0  0  0  0  0  0  0  0
    3.0269    1.2544    0.7093 H   0  0  0  0  0  0  0  0  0  0  0  0
    1.8930    1.4473   -0.7497 H   0  0  0  0  0  0  0  0  0  0  0  0
  1  2  1  0
  2  3  1  0
  3  4  1  0
  4  5  1  0
  5  6  1  0
  5  7  1  0
  7  8  1  0
  8  9  1  0
  5  3  1  0
  9  7  1  0
  1 10  1  0
  2 11  1  0
  2 12  1  0
  3 13  1  0
  4 14  1  0
  4 15  1  0
  6 16  1  0
  7 17  1  0
  8 18  1  0
  8 19  1  0
M  END
