
     RDKit          3D

 21 23  0  0  0  0  0  0  0  0999 V2000
    2.3257   -0.3846    0.6827 O   0  0  0  0  0  0  0  0  0  0  0  0
    2.0034   -0.0204   -0.6072 C   0  0  0  0  0  0  0  0  0  0  0  0
    0.5425    0.1862   -0.7749 C   0  0  0  0  0  0  0  0  0  0  0  0
   -0.3349   -0.9835   -0.4933 C   0  0  0  0  0  0  0  0  0  0  0  0
   -1.6926   -0.3206   -0.7928 C   0  0  0  0  0  0  0  0  0  0  0  0
   -1.5023    0.9133    0.1002 C   0  0  0  0  0  0  0  0  0  0  0  0
   -0.6846    0.4672    1.2628 C   0  0  0  0  0  0  0  0  0  0  0  0
   -0.4427   -1.0229    1.0123 C   0  0  0  0  0  0  0  0  0  0  0  0
   -0.0434    1.2094    0.1651 C   0  0  0  0  0  0  0  0  0  0  0  0
    2.7170    0.3663    1.2149 H   0  0  0  0  0  0  0  0  0  0  0  0
    2.4119   -0.7709   -1.3123 H   0  0  0  0  0  0  0  0  0  0  0  0
    2.4874    0.9861   -0.7761 H   0  0  0  0  0  0  0  0  0  0  0  0
    0.3100    0.5664   -1.8109 H   0  0  0  0  0  0  0  0  0  0  0  0
   -0.1615   -1.8948   -0.9959 H   0  0  0  0  0  0  0  0  0  0  0  0
   -2.5287   -0.9402   -0.4524 H   0  0  0  0  0  0  0  0  0  0  0  0
   -1.6849   -0.0696   -1.8513 H   0  0  0  0  0  0  0  0  0  0  0  0
   -2.2726    1.6643    0.1570 H   0  0  0  0  0  0  0  0  0  0  0  0
   -0.8299    0.8363    2.2650 H   0  0  0  0  0  0  0  0  0  0  0  0
    0.4209   -1.4235    1.5243 H   0  0  0  0  0  0  0  0  0  0  0  0
   -1.3980   -1.5742    1.2382 H   0  0  0  0  0  0  0  0  0  0  0  0
    0.3575    2.2100    0.2447 H   0  0  0  0  0  0  0  0  0  0  0  0
  1  2  1  0
  2  3  1  0
  3  4  1  0
  4  5  1  0
  5  6  1  0
  6  7  1  0
  7  8  1  0
  7  9  1  0
  9  3  1  0
  8  4  1  0
  9  6  1  0
  1 10  1  0
  2 11  1  0
  2 12  1  0
  3 13  1  0
  4 14  1  0
  5 15  1  0
  5 16  1  0
  6 17  1  0
  7 18  1  0
  8 19  1  0
  8 20  1  0
  9 21  1  0
M  END
