
     RDKit          3D

 19 20  0  0  0  0  0  0  0  0999 V2000
   -2.6406    0.5054    0.6264 O   0  0  0  0  0  0  0  0  0  0  0  0
   -2.0656   -0.4166   -0.2727 C   0  0  0  0  0  0  0  0  0  0  0  0
   -0.5796   -0.5683    0.0102 C   0  0  0  0  0  0  0  0  0  0  0  0
    0.0616   -1.4591   -0.8318 O   0  0  0  0  0  0  0  0  0  0  0  0
   -0.0696   -0.4365    1.4009 C   0  0  0  0  0  0  0  0  0  0  0  0
    0.1418    0.6790    0.4696 C   0  0  0  0  0  0  0  0  0  0  0  0
    1.4312    0.9561   -0.2114 C   0  0  0  0  0  0  0  0  0  0  0  0
    2.5727    0.1010   -0.2201 C   0  0  0  0  0  0  0  0  0  0  0  0
    2.4923    1.2181    0.7490 O   0  0  0  0  0  0  0  0  0  0  0  0
   -2.8198    1.3609    0.1306 H   0  0  0  0  0  0  0  0  0  0  0  0
   -2.6127   -1.3639   -0.1367 H   0  0  0  0  0  0  0  0  0  0  0  0
   -2.1873   -0.0348   -1.3198 H   0  0  0  0  0  0  0  0  0  0  0  0
   -0.5486   -1.8410   -1.5304 H   0  0  0  0  0  0  0  0  0  0  0  0
   -0.8287   -0.3146    2.1995 H   0  0  0  0  0  0  0  0  0  0  0  0
    0.7455   -1.1458    1.6821 H   0  0  0  0  0  0  0  0  0  0  0  0
   -0.5051    1.5866    0.6268 H   0  0  0  0  0  0  0  0  0  0  0  0
    1.3539    1.7338   -1.0217 H   0  0  0  0  0  0  0  0  0  0  0  0
    2.6603   -0.8795    0.2597 H   0  0  0  0  0  0  0  0  0  0  0  0
    3.3982    0.3193   -0.9267 H   0  0  0  0  0  0  0  0  0  0  0  0
  1  2  1  0
  2  3  1  0
  3  4  1  0
  3  5  1  0
  5  6  1  0
  6  7  1  0
  7  8  1  0
  8  9  1  0
  6  3  1  0
  9  7  1  0
  1 10  1  0
  2 11  1  0
  2 12  1  0
  4 13  1  0
  5 14  1  0
  5 15  1  0
  6 16  1  0
  7 17  1  0
  8 18  1  0
  8 19  1  0
M  END
