
     RDKit          3D

 20 21  0  0  0  0  0  0  0  0999 V2000
   -2.7724    0.6844    0.3173 O   0  0  0  0  0  0  0  0  0  0  0  0
   -1.9017    0.1282   -0.5927 C   0  0  0  0  0  0  0  0  0  0  0  0
   -0.7583   -0.5434    0.1200 C   0  0  0  0  0  0  0  0  0  0  0  0
    0.0019    0.4958    0.9726 C   0  0  0  0  0  0  0  0  0  0  0  0
    1.3734   -0.0192    0.7664 C   0  0  0  0  0  0  0  0  0  0  0  0
    2.4332    0.2974   -0.0933 C   0  0  0  0  0  0  0  0  0  0  0  0
    1.2607    0.0507   -0.8111 C   0  0  0  0  0  0  0  0  0  0  0  0
    0.2852   -1.0622   -0.8855 C   0  0  0  0  0  0  0  0  0  0  0  0
   -3.2154    1.5148   -0.0085 H   0  0  0  0  0  0  0  0  0  0  0  0
   -1.5299    0.8538   -1.3357 H   0  0  0  0  0  0  0  0  0  0  0  0
   -2.4538   -0.6670   -1.1363 H   0  0  0  0  0  0  0  0  0  0  0  0
   -1.0582   -1.3389    0.7916 H   0  0  0  0  0  0  0  0  0  0  0  0
   -0.3094    0.4368    2.0267 H   0  0  0  0  0  0  0  0  0  0  0  0
   -0.1475    1.4663    0.4958 H   0  0  0  0  0  0  0  0  0  0  0  0
    1.4069   -1.0719    1.1978 H   0  0  0  0  0  0  0  0  0  0  0  0
    2.8567    1.3435   -0.0561 H   0  0  0  0  0  0  0  0  0  0  0  0
    3.3014   -0.4134   -0.1967 H   0  0  0  0  0  0  0  0  0  0  0  0
    0.7397    0.9761   -1.2181 H   0  0  0  0  0  0  0  0  0  0  0  0
    0.6833   -2.0363   -0.5860 H   0  0  0  0  0  0  0  0  0  0  0  0
   -0.1958   -1.0956   -1.9058 H   0  0  0  0  0  0  0  0  0  0  0  0
  1  2  1  0
  2  3  1  0
  3  4  1  0
  4  5  1  0
  5  6  1  0
  6  7  1  0
  7  8  1  0
  8  3  1  0
  7  5  1  0
  1  9  1  0
  2 10  1  0
  2 11  1  0
  3 12  1  0
  4 13  1  0
  4 14  1  0
  5 15  1  0
  6 16  1  0
  6 17  1  0
  7 18  1  0
  8 19  1  0
  8 20  1  0
M  END
