
     RDKit          3D

 19 21  0  0  0  0  0  0  0  0999 V2000
    1.2078    1.9271   -0.2839 O   0  0  0  0  0  0  0  0  0  0  0  0
    1.5490    0.6079   -0.0986 C   0  0  0  0  0  0  0  0  0  0  0  0
    0.4299   -0.3308   -0.3032 C   0  0  0  0  0  0  0  0  0  0  0  0
    0.8061   -1.8089   -0.0970 C   0  0  0  0  0  0  0  0  0  0  0  0
   -0.0216   -1.2082    0.9207 C   0  0  0  0  0  0  0  0  0  0  0  0
   -1.4276   -1.1033    0.8381 O   0  0  0  0  0  0  0  0  0  0  0  0
   -1.5478    0.2268    0.5471 C   0  0  0  0  0  0  0  0  0  0  0  0
   -1.8613    0.9868   -0.5915 C   0  0  0  0  0  0  0  0  0  0  0  0
   -0.8727    0.0166   -0.8715 C   0  0  0  0  0  0  0  0  0  0  0  0
    1.3441    2.4136    0.5902 H   0  0  0  0  0  0  0  0  0  0  0  0
    2.3415    0.3732   -0.8695 H   0  0  0  0  0  0  0  0  0  0  0  0
    2.0927    0.4649    0.8820 H   0  0  0  0  0  0  0  0  0  0  0  0
    1.8346   -2.0534    0.1551 H   0  0  0  0  0  0  0  0  0  0  0  0
    0.3775   -2.5025   -0.8707 H   0  0  0  0  0  0  0  0  0  0  0  0
    0.3712   -0.9122    1.8933 H   0  0  0  0  0  0  0  0  0  0  0  0
   -0.9150    0.7886    1.3070 H   0  0  0  0  0  0  0  0  0  0  0  0
   -1.5369    2.0671   -0.6721 H   0  0  0  0  0  0  0  0  0  0  0  0
   -2.8912    0.9124   -1.0132 H   0  0  0  0  0  0  0  0  0  0  0  0
   -1.2803   -0.8658   -1.4624 H   0  0  0  0  0  0  0  0  0  0  0  0
  1  2  1  0
  2  3  1  0
  3  4  1  0
  4  5  1  0
  5  6  1  0
  6  7  1  0
  7  8  1  0
  8  9  1  0
  5  3  1  0
  9  7  1  0
  9  3  1  0
  1 10  1  0
  2 11  1  0
  2 12  1  0
  4 13  1  0
  4 14  1  0
  5 15  1  0
  7 16  1  0
  8 17  1  0
  8 18  1  0
  9 19  1  0
M  END
