
     RDKit          3D

 17 18  0  0  0  0  0  0  0  0999 V2000
   -2.8325    0.3693   -0.3530 O   0  0  0  0  0  0  0  0  0  0  0  0
   -1.9221    0.2370    0.6983 C   0  0  0  0  0  0  0  0  0  0  0  0
   -0.5842   -0.1120    0.1569 C   0  0  0  0  0  0  0  0  0  0  0  0
    0.1528   -1.1902    0.4023 C   0  0  0  0  0  0  0  0  0  0  0  0
    1.3861   -1.0030   -0.3828 C   0  0  0  0  0  0  0  0  0  0  0  0
    2.1238    0.1196    0.2180 C   0  0  0  0  0  0  0  0  0  0  0  0
    1.4364    1.2122   -0.0979 C   0  0  0  0  0  0  0  0  0  0  0  0
    0.2253    0.6961   -0.7961 C   0  0  0  0  0  0  0  0  0  0  0  0
    0.8315   -0.3623   -1.5256 O   0  0  0  0  0  0  0  0  0  0  0  0
   -2.8956   -0.4703   -0.8646 H   0  0  0  0  0  0  0  0  0  0  0  0
   -1.8890    1.2203    1.2128 H   0  0  0  0  0  0  0  0  0  0  0  0
   -2.2902   -0.4940    1.4178 H   0  0  0  0  0  0  0  0  0  0  0  0
   -0.0933   -2.0255    1.0382 H   0  0  0  0  0  0  0  0  0  0  0  0
    1.9464   -1.8818   -0.6159 H   0  0  0  0  0  0  0  0  0  0  0  0
    3.0333    0.0520    0.7932 H   0  0  0  0  0  0  0  0  0  0  0  0
    1.6787    2.2375    0.0952 H   0  0  0  0  0  0  0  0  0  0  0  0
   -0.3075    1.3950   -1.3967 H   0  0  0  0  0  0  0  0  0  0  0  0
  1  2  1  0
  2  3  1  0
  3  4  2  0
  4  5  1  0
  5  6  1  0
  6  7  2  0
  7  8  1  0
  8  9  1  0
  8  3  1  0
  9  5  1  0
  1 10  1  0
  2 11  1  0
  2 12  1  0
  4 13  1  0
  5 14  1  0
  6 15  1  0
  7 16  1  0
  8 17  1  0
M  END
