
     RDKit          3D

 19 21  0  0  0  0  0  0  0  0999 V2000
    2.4451    0.9161   -0.5401 O   0  0  0  0  0  0  0  0  0  0  0  0
    1.8199    0.2135    0.4814 C   0  0  0  0  0  0  0  0  0  0  0  0
    0.4208   -0.0716    0.2409 C   0  0  0  0  0  0  0  0  0  0  0  0
   -0.1746   -0.8434   -0.8583 C   0  0  0  0  0  0  0  0  0  0  0  0
   -1.1596   -1.4418    0.1525 C   0  0  0  0  0  0  0  0  0  0  0  0
   -0.6384   -0.4138    1.1403 C   0  0  0  0  0  0  0  0  0  0  0  0
   -0.6038    0.9560    0.5608 C   0  0  0  0  0  0  0  0  0  0  0  0
   -1.3318    1.0736   -0.7781 C   0  0  0  0  0  0  0  0  0  0  0  0
   -0.7870    0.1531   -1.6330 O   0  0  0  0  0  0  0  0  0  0  0  0
    2.9021    0.3393   -1.1942 H   0  0  0  0  0  0  0  0  0  0  0  0
    1.9488    0.8140    1.4067 H   0  0  0  0  0  0  0  0  0  0  0  0
    2.4306   -0.7163    0.6532 H   0  0  0  0  0  0  0  0  0  0  0  0
    0.4059   -1.5456   -1.4303 H   0  0  0  0  0  0  0  0  0  0  0  0
   -2.2129   -1.1902   -0.0957 H   0  0  0  0  0  0  0  0  0  0  0  0
   -0.9985   -2.4827    0.4020 H   0  0  0  0  0  0  0  0  0  0  0  0
   -0.5143   -0.6395    2.1853 H   0  0  0  0  0  0  0  0  0  0  0  0
   -0.3891    1.8477    1.1418 H   0  0  0  0  0  0  0  0  0  0  0  0
   -2.4106    0.9167   -0.6700 H   0  0  0  0  0  0  0  0  0  0  0  0
   -1.1526    2.1148   -1.1652 H   0  0  0  0  0  0  0  0  0  0  0  0
  1  2  1  0
  2  3  1  0
  3  4  1  0
  4  5  1  0
  5  6  1  0
  6  7  1  0
  7  8  1  0
  8  9  1  0
  6  3  1  0
  7  3  1  0
  9  4  1  0
  1 10  1  0
  2 11  1  0
  2 12  1  0
  4 13  1  0
  5 14  1  0
  5 15  1  0
  6 16  1  0
  7 17  1  0
  8 18  1  0
  8 19  1  0
M  END
