
     RDKit          3D

 18 19  0  0  0  0  0  0  0  0999 V2000
    3.0244    0.3655    0.5809 O   0  0  0  0  0  0  0  0  0  0  0  0
    2.0324   -0.0857   -0.3062 C   0  0  0  0  0  0  0  0  0  0  0  0
    0.6891    0.4899    0.0089 C   0  0  0  0  0  0  0  0  0  0  0  0
   -0.4177    0.0735   -0.8693 C   0  0  0  0  0  0  0  0  0  0  0  0
   -1.7559    0.7489   -0.5678 C   0  0  0  0  0  0  0  0  0  0  0  0
   -1.7640   -0.0254    0.7272 C   0  0  0  0  0  0  0  0  0  0  0  0
   -0.3217   -0.3863    0.6208 C   0  0  0  0  0  0  0  0  0  0  0  0
    0.0563   -1.7005    0.8390 O   0  0  0  0  0  0  0  0  0  0  0  0
    2.6138    1.0939    1.1371 H   0  0  0  0  0  0  0  0  0  0  0  0
    2.4002    0.1752   -1.3298 H   0  0  0  0  0  0  0  0  0  0  0  0
    1.9626   -1.1985   -0.2230 H   0  0  0  0  0  0  0  0  0  0  0  0
    0.6866    1.5581    0.3149 H   0  0  0  0  0  0  0  0  0  0  0  0
   -0.3732   -0.7536   -1.5694 H   0  0  0  0  0  0  0  0  0  0  0  0
   -2.5569    0.5368   -1.2756 H   0  0  0  0  0  0  0  0  0  0  0  0
   -1.6483    1.8454   -0.3801 H   0  0  0  0  0  0  0  0  0  0  0  0
   -2.3955   -0.9439    0.5865 H   0  0  0  0  0  0  0  0  0  0  0  0
   -2.1014    0.5093    1.6155 H   0  0  0  0  0  0  0  0  0  0  0  0
   -0.1308   -2.3026    0.0904 H   0  0  0  0  0  0  0  0  0  0  0  0
  1  2  1  0
  2  3  1  0
  3  4  1  0
  4  5  1  0
  5  6  1  0
  6  7  1  0
  7  8  1  0
  7  3  1  0
  7  4  1  0
  1  9  1  0
  2 10  1  0
  2 11  1  0
  3 12  1  0
  4 13  1  0
  5 14  1  0
  5 15  1  0
  6 16  1  0
  6 17  1  0
  8 18  1  0
M  END
