
     RDKit          3D

 21 22  0  0  0  0  0  0  0  0999 V2000
    2.8228   -0.3799   -0.7178 O   0  0  0  0  0  0  0  0  0  0  0  0
    1.5844    0.1272   -1.1488 C   0  0  0  0  0  0  0  0  0  0  0  0
    0.7489    0.3788    0.0808 C   0  0  0  0  0  0  0  0  0  0  0  0
    0.5412   -0.9344    0.8655 C   0  0  0  0  0  0  0  0  0  0  0  0
   -0.9615   -0.9265    0.9270 C   0  0  0  0  0  0  0  0  0  0  0  0
   -1.3211   -0.6224   -0.5322 C   0  0  0  0  0  0  0  0  0  0  0  0
   -0.6695    0.7272   -0.2034 C   0  0  0  0  0  0  0  0  0  0  0  0
   -1.0077    1.7887   -0.9152 O   0  0  0  0  0  0  0  0  0  0  0  0
   -1.3162    0.5318    1.1764 C   0  0  0  0  0  0  0  0  0  0  0  0
    3.3234    0.3520   -0.2775 H   0  0  0  0  0  0  0  0  0  0  0  0
    1.0726   -0.5584   -1.8303 H   0  0  0  0  0  0  0  0  0  0  0  0
    1.7328    1.0935   -1.6724 H   0  0  0  0  0  0  0  0  0  0  0  0
    1.2545    1.0719    0.7851 H   0  0  0  0  0  0  0  0  0  0  0  0
    1.0325   -0.9041    1.8432 H   0  0  0  0  0  0  0  0  0  0  0  0
    0.8642   -1.7640    0.2142 H   0  0  0  0  0  0  0  0  0  0  0  0
   -1.4936   -1.6849    1.4283 H   0  0  0  0  0  0  0  0  0  0  0  0
   -0.7751   -1.2149   -1.2732 H   0  0  0  0  0  0  0  0  0  0  0  0
   -2.4064   -0.5106   -0.6849 H   0  0  0  0  0  0  0  0  0  0  0  0
   -1.9073    1.7443   -1.2618 H   0  0  0  0  0  0  0  0  0  0  0  0
   -2.3959    0.7120    1.1990 H   0  0  0  0  0  0  0  0  0  0  0  0
   -0.7230    0.9727    1.9982 H   0  0  0  0  0  0  0  0  0  0  0  0
  1  2  1  0
  2  3  1  0
  3  4  1  0
  4  5  1  0
  5  6  1  0
  6  7  1  0
  7  8  1  0
  7  9  1  0
  7  3  1  0
  9  5  1  0
  1 10  1  0
  2 11  1  0
  2 12  1  0
  3 13  1  0
  4 14  1  0
  4 15  1  0
  5 16  1  0
  6 17  1  0
  6 18  1  0
  8 19  1  0
  9 20  1  0
  9 21  1  0
M  END
