
     RDKit          3D

 21 21  0  0  0  0  0  0  0  0999 V2000
    2.6425   -1.1504   -0.4540 O   0  0  0  0  0  0  0  0  0  0  0  0
    1.9491   -0.1920    0.2823 C   0  0  0  0  0  0  0  0  0  0  0  0
    0.5874    0.0243   -0.3918 C   0  0  0  0  0  0  0  0  0  0  0  0
   -0.2127   -1.2237   -0.4383 C   0  0  0  0  0  0  0  0  0  0  0  0
   -1.4728   -1.1964    0.3775 C   0  0  0  0  0  0  0  0  0  0  0  0
   -2.1992    0.0826    0.2945 C   0  0  0  0  0  0  0  0  0  0  0  0
   -1.5106    1.2212    0.2274 C   0  0  0  0  0  0  0  0  0  0  0  0
   -0.0469    1.1976    0.2363 C   0  0  0  0  0  0  0  0  0  0  0  0
    0.4067    2.3731   -0.3982 O   0  0  0  0  0  0  0  0  0  0  0  0
    3.5786   -1.2215   -0.1890 H   0  0  0  0  0  0  0  0  0  0  0  0
    1.7998   -0.5105    1.3387 H   0  0  0  0  0  0  0  0  0  0  0  0
    2.5051    0.7628    0.2611 H   0  0  0  0  0  0  0  0  0  0  0  0
    0.8476    0.2974   -1.4563 H   0  0  0  0  0  0  0  0  0  0  0  0
   -0.4771   -1.5410   -1.4905 H   0  0  0  0  0  0  0  0  0  0  0  0
    0.4134   -2.0543   -0.0442 H   0  0  0  0  0  0  0  0  0  0  0  0
   -1.2753   -1.5052    1.4336 H   0  0  0  0  0  0  0  0  0  0  0  0
   -2.1471   -1.9847   -0.0352 H   0  0  0  0  0  0  0  0  0  0  0  0
   -3.2807    0.1659    0.2838 H   0  0  0  0  0  0  0  0  0  0  0  0
   -2.0425    2.1622    0.1664 H   0  0  0  0  0  0  0  0  0  0  0  0
    0.2799    1.3165    1.3079 H   0  0  0  0  0  0  0  0  0  0  0  0
   -0.3452    2.9761   -0.6207 H   0  0  0  0  0  0  0  0  0  0  0  0
  1  2  1  0
  2  3  1  0
  3  4  1  0
  4  5  1  0
  5  6  1  0
  6  7  2  0
  7  8  1  0
  8  9  1  0
  8  3  1  0
  1 10  1  0
  2 11  1  0
  2 12  1  0
  3 13  1  0
  4 14  1  0
  4 15  1  0
  5 16  1  0
  5 17  1  0
  6 18  1  0
  7 19  1  0
  8 20  1  0
  9 21  1  0
M  END
