
     RDKit          3D

 19 20  0  0  0  0  0  0  0  0999 V2000
    2.7232   -0.8661    0.6630 O   0  0  0  0  0  0  0  0  0  0  0  0
    1.9381   -0.3193   -0.3304 C   0  0  0  0  0  0  0  0  0  0  0  0
    0.4649   -0.4113   -0.0641 C   0  0  0  0  0  0  0  0  0  0  0  0
   -0.0529   -1.6780    0.0834 O   0  0  0  0  0  0  0  0  0  0  0  0
   -0.2925    0.5185   -0.9723 C   0  0  0  0  0  0  0  0  0  0  0  0
   -1.7608    0.3543   -0.6308 C   0  0  0  0  0  0  0  0  0  0  0  0
   -1.5869    0.2384    0.8981 C   0  0  0  0  0  0  0  0  0  0  0  0
   -0.1001    0.5528    0.9247 C   0  0  0  0  0  0  0  0  0  0  0  0
    0.0679    1.5399   -0.0743 O   0  0  0  0  0  0  0  0  0  0  0  0
    2.7928   -0.1837    1.3837 H   0  0  0  0  0  0  0  0  0  0  0  0
    2.1446   -0.7355   -1.3406 H   0  0  0  0  0  0  0  0  0  0  0  0
    2.1756    0.7797   -0.4205 H   0  0  0  0  0  0  0  0  0  0  0  0
   -0.4331   -2.0685   -0.7358 H   0  0  0  0  0  0  0  0  0  0  0  0
   -0.0061    0.6181   -1.9908 H   0  0  0  0  0  0  0  0  0  0  0  0
   -2.2116   -0.5360   -1.0573 H   0  0  0  0  0  0  0  0  0  0  0  0
   -2.2608    1.2953   -0.8396 H   0  0  0  0  0  0  0  0  0  0  0  0
   -1.7805   -0.8022    1.2212 H   0  0  0  0  0  0  0  0  0  0  0  0
   -2.1929    0.9900    1.4204 H   0  0  0  0  0  0  0  0  0  0  0  0
    0.3711    0.7136    1.8620 H   0  0  0  0  0  0  0  0  0  0  0  0
  1  2  1  0
  2  3  1  0
  3  4  1  0
  3  5  1  0
  5  6  1  0
  6  7  1  0
  7  8  1  0
  8  9  1  0
  8  3  1  0
  9  5  1  0
  1 10  1  0
  2 11  1  0
  2 12  1  0
  4 13  1  0
  5 14  1  0
  6 15  1  0
  6 16  1  0
  7 17  1  0
  7 18  1  0
  8 19  1  0
M  END
