
     RDKit          3D

 19 20  0  0  0  0  0  0  0  0999 V2000
   -2.1957    1.7405   -0.0462 O   0  0  0  0  0  0  0  0  0  0  0  0
   -1.9555    0.4269    0.2588 C   0  0  0  0  0  0  0  0  0  0  0  0
   -0.7252   -0.1017   -0.4093 C   0  0  0  0  0  0  0  0  0  0  0  0
   -0.5617   -1.5787    0.0080 C   0  0  0  0  0  0  0  0  0  0  0  0
    0.8055   -1.7018    0.3779 O   0  0  0  0  0  0  0  0  0  0  0  0
    1.3783   -0.7939   -0.4539 C   0  0  0  0  0  0  0  0  0  0  0  0
    1.8654    0.5175   -0.3206 C   0  0  0  0  0  0  0  0  0  0  0  0
    2.9231    0.7258    0.5946 O   0  0  0  0  0  0  0  0  0  0  0  0
    0.5508    0.4179    0.1447 C   0  0  0  0  0  0  0  0  0  0  0  0
   -1.4071    2.2685   -0.2516 H   0  0  0  0  0  0  0  0  0  0  0  0
   -2.8240   -0.1652   -0.1551 H   0  0  0  0  0  0  0  0  0  0  0  0
   -1.9609    0.2162    1.3440 H   0  0  0  0  0  0  0  0  0  0  0  0
   -0.8096   -0.0208   -1.4918 H   0  0  0  0  0  0  0  0  0  0  0  0
   -0.7628   -2.1960   -0.8699 H   0  0  0  0  0  0  0  0  0  0  0  0
   -1.2311   -1.8399    0.8303 H   0  0  0  0  0  0  0  0  0  0  0  0
    1.1086   -1.0920   -1.5161 H   0  0  0  0  0  0  0  0  0  0  0  0
    2.0655    1.1383   -1.2388 H   0  0  0  0  0  0  0  0  0  0  0  0
    3.2867    1.6337    0.5375 H   0  0  0  0  0  0  0  0  0  0  0  0
    0.4498    0.4047    1.2775 H   0  0  0  0  0  0  0  0  0  0  0  0
  1  2  1  0
  2  3  1  0
  3  4  1  0
  4  5  1  0
  5  6  1  0
  6  7  1  0
  7  8  1  0
  7  9  1  0
  9  3  1  0
  9  6  1  0
  1 10  1  0
  2 11  1  0
  2 12  1  0
  3 13  1  0
  4 14  1  0
  4 15  1  0
  6 16  1  0
  7 17  1  0
  8 18  1  0
  9 19  1  0
M  END
