
     RDKit          3D

 19 20  0  0  0  0  0  0  0  0999 V2000
    1.9669    0.9616   -1.1979 O   0  0  0  0  0  0  0  0  0  0  0  0
    1.8378    0.2313   -0.0409 C   0  0  0  0  0  0  0  0  0  0  0  0
    0.4247   -0.1448    0.2965 C   0  0  0  0  0  0  0  0  0  0  0  0
   -0.2594   -0.9862   -0.7552 C   0  0  0  0  0  0  0  0  0  0  0  0
   -1.0852   -0.1422   -1.4854 O   0  0  0  0  0  0  0  0  0  0  0  0
   -2.1481    0.2813   -0.7224 C   0  0  0  0  0  0  0  0  0  0  0  0
   -1.8541    0.5981    0.5708 O   0  0  0  0  0  0  0  0  0  0  0  0
   -0.5399    0.8111    0.8600 C   0  0  0  0  0  0  0  0  0  0  0  0
    0.1113   -0.2937    1.7296 C   0  0  0  0  0  0  0  0  0  0  0  0
    2.6706    0.5815   -1.7868 H   0  0  0  0  0  0  0  0  0  0  0  0
    2.3974   -0.7405   -0.1798 H   0  0  0  0  0  0  0  0  0  0  0  0
    2.3486    0.7135    0.8366 H   0  0  0  0  0  0  0  0  0  0  0  0
   -0.8253   -1.8282   -0.3013 H   0  0  0  0  0  0  0  0  0  0  0  0
    0.4686   -1.4252   -1.4807 H   0  0  0  0  0  0  0  0  0  0  0  0
   -2.8997   -0.5598   -0.7254 H   0  0  0  0  0  0  0  0  0  0  0  0
   -2.6500    1.1578   -1.1921 H   0  0  0  0  0  0  0  0  0  0  0  0
   -0.2797    1.8562    1.1182 H   0  0  0  0  0  0  0  0  0  0  0  0
   -0.5291   -1.1559    2.0031 H   0  0  0  0  0  0  0  0  0  0  0  0
    0.8446    0.0841    2.4530 H   0  0  0  0  0  0  0  0  0  0  0  0
  1  2  1  0
  2  3  1  0
  3  4  1  0
  4  5  1  0
  5  6  1  0
  6  7  1  0
  7  8  1  0
  8  9  1  0
  8  3  1  0
  9  3  1  0
  1 10  1  0
  2 11  1  0
  2 12  1  0
  4 13  1  0
  4 14  1  0
  6 15  1  0
  6 16  1  0
  8 17  1  0
  9 18  1  0
  9 19  1  0
M  END
