
     RDKit          3D

 21 22  0  0  0  0  0  0  0  0999 V2000
   -1.7472    2.1085    0.0057 O   0  0  0  0  0  0  0  0  0  0  0  0
   -1.8195    0.7496    0.2941 C   0  0  0  0  0  0  0  0  0  0  0  0
   -0.8499   -0.0683   -0.5055 C   0  0  0  0  0  0  0  0  0  0  0  0
    0.4502   -0.4538    0.1358 C   0  0  0  0  0  0  0  0  0  0  0  0
    1.3402    0.6617    0.5785 C   0  0  0  0  0  0  0  0  0  0  0  0
    2.3083    0.2663   -0.5289 C   0  0  0  0  0  0  0  0  0  0  0  0
    1.4883   -1.0015   -0.7869 C   0  0  0  0  0  0  0  0  0  0  0  0
   -1.4882   -1.1898   -1.2929 C   0  0  0  0  0  0  0  0  0  0  0  0
   -0.9495   -0.0441   -1.8944 O   0  0  0  0  0  0  0  0  0  0  0  0
   -2.6405    2.5065   -0.1846 H   0  0  0  0  0  0  0  0  0  0  0  0
   -1.5583    0.6089    1.3750 H   0  0  0  0  0  0  0  0  0  0  0  0
   -2.8627    0.4307    0.1370 H   0  0  0  0  0  0  0  0  0  0  0  0
    0.2388   -1.2119    0.9460 H   0  0  0  0  0  0  0  0  0  0  0  0
    1.7699    0.4493    1.5827 H   0  0  0  0  0  0  0  0  0  0  0  0
    0.9931    1.6868    0.4200 H   0  0  0  0  0  0  0  0  0  0  0  0
    2.2546    0.9402   -1.4189 H   0  0  0  0  0  0  0  0  0  0  0  0
    3.3196    0.0517   -0.1605 H   0  0  0  0  0  0  0  0  0  0  0  0
    1.1934   -1.1281   -1.8442 H   0  0  0  0  0  0  0  0  0  0  0  0
    2.0328   -1.9116   -0.4171 H   0  0  0  0  0  0  0  0  0  0  0  0
   -2.5661   -1.3388   -1.2797 H   0  0  0  0  0  0  0  0  0  0  0  0
   -0.9073   -2.1122   -1.5031 H   0  0  0  0  0  0  0  0  0  0  0  0
  1  2  1  0
  2  3  1  0
  3  4  1  0
  4  5  1  0
  5  6  1  0
  6  7  1  0
  3  8  1  0
  8  9  1  0
  9  3  1  0
  7  4  1  0
  1 10  1  0
  2 11  1  0
  2 12  1  0
  4 13  1  0
  5 14  1  0
  5 15  1  0
  6 16  1  0
  6 17  1  0
  7 18  1  0
  7 19  1  0
  8 20  1  0
  8 21  1  0
M  END
