
     RDKit          3D

 17 19  0  0  0  0  0  0  0  0999 V2000
    2.5639    0.7707    0.0610 O   0  0  0  0  0  0  0  0  0  0  0  0
    1.5688    0.4481   -0.8418 C   0  0  0  0  0  0  0  0  0  0  0  0
    0.6288   -0.6126   -0.3108 C   0  0  0  0  0  0  0  0  0  0  0  0
   -0.3479   -0.9173   -1.2190 O   0  0  0  0  0  0  0  0  0  0  0  0
   -1.5685   -0.4942   -0.7457 C   0  0  0  0  0  0  0  0  0  0  0  0
   -1.5836    0.7935   -0.0125 C   0  0  0  0  0  0  0  0  0  0  0  0
   -0.4571    1.2439    0.6823 O   0  0  0  0  0  0  0  0  0  0  0  0
   -0.0408   -0.0652    0.9334 C   0  0  0  0  0  0  0  0  0  0  0  0
   -1.4578   -0.4914    0.6970 C   0  0  0  0  0  0  0  0  0  0  0  0
    3.0953   -0.0489    0.3130 H   0  0  0  0  0  0  0  0  0  0  0  0
    1.0410    1.3760   -1.1042 H   0  0  0  0  0  0  0  0  0  0  0  0
    2.0199    0.0336   -1.7671 H   0  0  0  0  0  0  0  0  0  0  0  0
    1.2214   -1.5220   -0.1057 H   0  0  0  0  0  0  0  0  0  0  0  0
   -2.4684   -0.7918   -1.2497 H   0  0  0  0  0  0  0  0  0  0  0  0
   -2.5001    1.3807   -0.0326 H   0  0  0  0  0  0  0  0  0  0  0  0
    0.4178   -0.2758    1.8868 H   0  0  0  0  0  0  0  0  0  0  0  0
   -2.1329   -0.8270    1.4430 H   0  0  0  0  0  0  0  0  0  0  0  0
  1  2  1  0
  2  3  1  0
  3  4  1  0
  4  5  1  0
  5  6  1  0
  6  7  1  0
  7  8  1  0
  8  9  1  0
  8  3  1  0
  9  5  1  0
  9  6  1  0
  1 10  1  0
  2 11  1  0
  2 12  1  0
  3 13  1  0
  5 14  1  0
  6 15  1  0
  8 16  1  0
  9 17  1  0
M  END
