
     RDKit          3D

 19 20  0  0  0  0  0  0  0  0999 V2000
    2.4718    0.8986   -0.1704 O   0  0  0  0  0  0  0  0  0  0  0  0
    1.9785   -0.3847    0.1580 C   0  0  0  0  0  0  0  0  0  0  0  0
    0.5376   -0.2909    0.3358 C   0  0  0  0  0  0  0  0  0  0  0  0
    0.0866    0.7759    1.2899 C   0  0  0  0  0  0  0  0  0  0  0  0
   -1.2100    1.0250    0.9908 C   0  0  0  0  0  0  0  0  0  0  0  0
   -1.5639    0.1733   -0.1614 C   0  0  0  0  0  0  0  0  0  0  0  0
   -1.4840   -1.2649    0.3018 C   0  0  0  0  0  0  0  0  0  0  0  0
   -0.1386   -1.4346    0.6611 O   0  0  0  0  0  0  0  0  0  0  0  0
   -0.2156    0.2021   -0.9140 C   0  0  0  0  0  0  0  0  0  0  0  0
    2.2731    1.4606    0.6279 H   0  0  0  0  0  0  0  0  0  0  0  0
    2.2248   -1.1220   -0.6056 H   0  0  0  0  0  0  0  0  0  0  0  0
    2.4390   -0.7266    1.1062 H   0  0  0  0  0  0  0  0  0  0  0  0
    0.7080    1.2155    2.0368 H   0  0  0  0  0  0  0  0  0  0  0  0
   -1.7749    1.7392    1.5654 H   0  0  0  0  0  0  0  0  0  0  0  0
   -2.4013    0.4463   -0.7495 H   0  0  0  0  0  0  0  0  0  0  0  0
   -1.6186   -1.8957   -0.6145 H   0  0  0  0  0  0  0  0  0  0  0  0
   -2.1811   -1.5132    1.1010 H   0  0  0  0  0  0  0  0  0  0  0  0
   -0.1901   -0.5266   -1.7195 H   0  0  0  0  0  0  0  0  0  0  0  0
    0.0586    1.2228   -1.1717 H   0  0  0  0  0  0  0  0  0  0  0  0
  1  2  1  0
  2  3  1  0
  3  4  1  0
  4  5  2  0
  5  6  1  0
  6  7  1  0
  7  8  1  0
  6  9  1  0
  8  3  1  0
  9  3  1  0
  1 10  1  0
  2 11  1  0
  2 12  1  0
  4 13  1  0
  5 14  1  0
  6 15  1  0
  7 16  1  0
  7 17  1  0
  9 18  1  0
  9 19  1  0
M  END
