
     RDKit          3D

 18 18  0  0  0  0  0  0  0  0999 V2000
    2.6846    0.8665   -0.3774 O   0  0  0  0  0  0  0  0  0  0  0  0
    1.9778   -0.2443    0.0734 C   0  0  0  0  0  0  0  0  0  0  0  0
    0.4985    0.0384    0.0091 C   0  0  0  0  0  0  0  0  0  0  0  0
   -0.1020    1.1385   -0.3978 C   0  0  0  0  0  0  0  0  0  0  0  0
   -1.5956    0.9908   -0.2939 C   0  0  0  0  0  0  0  0  0  0  0  0
   -1.6270    0.0087    0.8937 C   0  0  0  0  0  0  0  0  0  0  0  0
   -0.5441   -0.9287    0.4022 C   0  0  0  0  0  0  0  0  0  0  0  0
   -1.0213   -1.5273   -0.7544 O   0  0  0  0  0  0  0  0  0  0  0  0
    3.4868    0.6033   -0.9002 H   0  0  0  0  0  0  0  0  0  0  0  0
    2.3070   -0.4816    1.0963 H   0  0  0  0  0  0  0  0  0  0  0  0
    2.1510   -1.1053   -0.6072 H   0  0  0  0  0  0  0  0  0  0  0  0
    0.3588    2.0385   -0.7606 H   0  0  0  0  0  0  0  0  0  0  0  0
   -2.0123    0.4242   -1.1505 H   0  0  0  0  0  0  0  0  0  0  0  0
   -2.1014    1.9252   -0.0672 H   0  0  0  0  0  0  0  0  0  0  0  0
   -2.5995   -0.4618    1.0102 H   0  0  0  0  0  0  0  0  0  0  0  0
   -1.2551    0.5213    1.8189 H   0  0  0  0  0  0  0  0  0  0  0  0
   -0.2240   -1.6455    1.1710 H   0  0  0  0  0  0  0  0  0  0  0  0
   -0.3824   -2.1608   -1.1657 H   0  0  0  0  0  0  0  0  0  0  0  0
  1  2  1  0
  2  3  1  0
  3  4  2  0
  4  5  1  0
  5  6  1  0
  6  7  1  0
  7  8  1  0
  7  3  1  0
  1  9  1  0
  2 10  1  0
  2 11  1  0
  4 12  1  0
  5 13  1  0
  5 14  1  0
  6 15  1  0
  6 16  1  0
  7 17  1  0
  8 18  1  0
M  END
