
     RDKit          3D

 19 20  0  0  0  0  0  0  0  0999 V2000
    2.0088    1.5238    0.0732 O   0  0  0  0  0  0  0  0  0  0  0  0
    1.2786    0.8124    1.0559 C   0  0  0  0  0  0  0  0  0  0  0  0
    0.2611    0.0432    0.4083 C   0  0  0  0  0  0  0  0  0  0  0  0
   -0.6753   -0.8144    1.1680 C   0  0  0  0  0  0  0  0  0  0  0  0
   -1.4242   -1.3574    0.2053 C   0  0  0  0  0  0  0  0  0  0  0  0
   -0.8580   -0.7837   -1.0292 C   0  0  0  0  0  0  0  0  0  0  0  0
    0.6390   -0.8925   -0.7383 C   0  0  0  0  0  0  0  0  0  0  0  0
   -0.6744    0.6816   -0.5978 C   0  0  0  0  0  0  0  0  0  0  0  0
   -1.8007    1.2504   -0.0446 O   0  0  0  0  0  0  0  0  0  0  0  0
    2.5435    0.8210   -0.3944 H   0  0  0  0  0  0  0  0  0  0  0  0
    2.0322    0.1439    1.5297 H   0  0  0  0  0  0  0  0  0  0  0  0
    0.9203    1.5691    1.7809 H   0  0  0  0  0  0  0  0  0  0  0  0
   -0.6942   -0.9279    2.2428 H   0  0  0  0  0  0  0  0  0  0  0  0
   -2.2511   -2.0499    0.2591 H   0  0  0  0  0  0  0  0  0  0  0  0
   -1.2250   -0.9942   -1.9831 H   0  0  0  0  0  0  0  0  0  0  0  0
    0.9629   -1.8975   -0.4089 H   0  0  0  0  0  0  0  0  0  0  0  0
    1.2249   -0.4221   -1.5434 H   0  0  0  0  0  0  0  0  0  0  0  0
   -0.1921    1.2548   -1.4024 H   0  0  0  0  0  0  0  0  0  0  0  0
   -2.0764    2.0393   -0.5812 H   0  0  0  0  0  0  0  0  0  0  0  0
  1  2  1  0
  2  3  1  0
  3  4  1  0
  4  5  2  0
  5  6  1  0
  6  7  1  0
  6  8  1  0
  8  9  1  0
  7  3  1  0
  8  3  1  0
  1 10  1  0
  2 11  1  0
  2 12  1  0
  4 13  1  0
  5 14  1  0
  6 15  1  0
  7 16  1  0
  7 17  1  0
  8 18  1  0
  9 19  1  0
M  END
