
     RDKit          3D

 19 20  0  0  0  0  0  0  0  0999 V2000
   -3.0530    0.2033   -0.2342 O   0  0  0  0  0  0  0  0  0  0  0  0
   -1.8912   -0.5411   -0.3886 C   0  0  0  0  0  0  0  0  0  0  0  0
   -0.8845   -0.1358    0.6260 C   0  0  0  0  0  0  0  0  0  0  0  0
   -0.3875    1.3088    0.6624 C   0  0  0  0  0  0  0  0  0  0  0  0
    0.4195    0.2731    0.1147 C   0  0  0  0  0  0  0  0  0  0  0  0
    0.8453    0.1204   -1.1687 O   0  0  0  0  0  0  0  0  0  0  0  0
    2.1706    0.1737   -0.6760 C   0  0  0  0  0  0  0  0  0  0  0  0
    1.6257   -0.3773    0.6299 C   0  0  0  0  0  0  0  0  0  0  0  0
    1.5465   -1.7734    0.5261 O   0  0  0  0  0  0  0  0  0  0  0  0
   -3.2537    0.7139   -1.0674 H   0  0  0  0  0  0  0  0  0  0  0  0
   -1.4677   -0.4290   -1.4050 H   0  0  0  0  0  0  0  0  0  0  0  0
   -2.1423   -1.6006   -0.2509 H   0  0  0  0  0  0  0  0  0  0  0  0
   -0.9900   -0.5599    1.6693 H   0  0  0  0  0  0  0  0  0  0  0  0
   -0.1880    1.7903    1.6238 H   0  0  0  0  0  0  0  0  0  0  0  0
   -0.9119    2.0086   -0.0545 H   0  0  0  0  0  0  0  0  0  0  0  0
    2.8623   -0.4784   -1.2105 H   0  0  0  0  0  0  0  0  0  0  0  0
    2.4775    1.2349   -0.5454 H   0  0  0  0  0  0  0  0  0  0  0  0
    2.1465    0.0146    1.4946 H   0  0  0  0  0  0  0  0  0  0  0  0
    1.0758   -1.9462   -0.3458 H   0  0  0  0  0  0  0  0  0  0  0  0
  1  2  1  0
  2  3  1  0
  3  4  1  0
  4  5  1  0
  5  6  1  0
  6  7  1  0
  7  8  1  0
  8  9  1  0
  5  3  1  0
  8  5  1  0
  1 10  1  0
  2 11  1  0
  2 12  1  0
  3 13  1  0
  4 14  1  0
  4 15  1  0
  7 16  1  0
  7 17  1  0
  8 18  1  0
  9 19  1  0
M  END
