
     RDKit          3D

 21 21  0  0  0  0  0  0  0  0999 V2000
   -2.8960    0.2244    0.1934 O   0  0  0  0  0  0  0  0  0  0  0  0
   -1.9099   -0.7405   -0.0898 C   0  0  0  0  0  0  0  0  0  0  0  0
   -0.5896   -0.1293    0.2465 C   0  0  0  0  0  0  0  0  0  0  0  0
   -0.6221    0.1982    1.6176 O   0  0  0  0  0  0  0  0  0  0  0  0
   -0.3129    1.1287   -0.5241 C   0  0  0  0  0  0  0  0  0  0  0  0
    1.1731    1.3058   -0.3292 C   0  0  0  0  0  0  0  0  0  0  0  0
    1.7488   -0.0607   -0.0587 C   0  0  0  0  0  0  0  0  0  0  0  0
    2.5983   -0.4181   -1.1116 O   0  0  0  0  0  0  0  0  0  0  0  0
    0.5844   -1.0202    0.0318 C   0  0  0  0  0  0  0  0  0  0  0  0
   -3.1978    0.7051   -0.5925 H   0  0  0  0  0  0  0  0  0  0  0  0
   -2.0871   -1.5963    0.5955 H   0  0  0  0  0  0  0  0  0  0  0  0
   -1.9973   -1.0340   -1.1532 H   0  0  0  0  0  0  0  0  0  0  0  0
   -0.7236   -0.6647    2.1159 H   0  0  0  0  0  0  0  0  0  0  0  0
   -0.8843    1.9717   -0.0865 H   0  0  0  0  0  0  0  0  0  0  0  0
   -0.5763    0.9395   -1.5924 H   0  0  0  0  0  0  0  0  0  0  0  0
    1.6375    1.7884   -1.1879 H   0  0  0  0  0  0  0  0  0  0  0  0
    1.3437    1.9772    0.5551 H   0  0  0  0  0  0  0  0  0  0  0  0
    2.3406   -0.0395    0.8951 H   0  0  0  0  0  0  0  0  0  0  0  0
    3.1246   -1.1969   -0.7615 H   0  0  0  0  0  0  0  0  0  0  0  0
    0.5115   -1.7083   -0.8027 H   0  0  0  0  0  0  0  0  0  0  0  0
    0.7343   -1.6302    0.9658 H   0  0  0  0  0  0  0  0  0  0  0  0
  1  2  1  0
  2  3  1  0
  3  4  1  0
  3  5  1  0
  5  6  1  0
  6  7  1  0
  7  8  1  0
  7  9  1  0
  9  3  1  0
  1 10  1  0
  2 11  1  0
  2 12  1  0
  4 13  1  0
  5 14  1  0
  5 15  1  0
  6 16  1  0
  6 17  1  0
  7 18  1  0
  8 19  1  0
  9 20  1  0
  9 21  1  0
M  END
