
     RDKit          3D

 21 22  0  0  0  0  0  0  0  0999 V2000
    2.8036    0.6009    0.3796 O   0  0  0  0  0  0  0  0  0  0  0  0
    1.6214    0.2722    1.0947 C   0  0  0  0  0  0  0  0  0  0  0  0
    0.6015   -0.1261    0.1982 C   0  0  0  0  0  0  0  0  0  0  0  0
    0.3691    1.0114   -0.6904 C   0  0  0  0  0  0  0  0  0  0  0  0
   -0.8691    1.4831   -0.8208 C   0  0  0  0  0  0  0  0  0  0  0  0
   -1.9233    0.7760   -0.0185 C   0  0  0  0  0  0  0  0  0  0  0  0
   -1.7195   -0.6967   -0.2105 C   0  0  0  0  0  0  0  0  0  0  0  0
   -0.2525   -0.9740   -0.5752 C   0  0  0  0  0  0  0  0  0  0  0  0
    0.5941   -1.5769    0.2651 C   0  0  0  0  0  0  0  0  0  0  0  0
    2.8723    0.0337   -0.4396 H   0  0  0  0  0  0  0  0  0  0  0  0
    1.3497    1.2437    1.6170 H   0  0  0  0  0  0  0  0  0  0  0  0
    1.9841   -0.3376    1.9446 H   0  0  0  0  0  0  0  0  0  0  0  0
    1.1327    1.5286   -1.2757 H   0  0  0  0  0  0  0  0  0  0  0  0
   -1.1046    2.3242   -1.4645 H   0  0  0  0  0  0  0  0  0  0  0  0
   -2.9149    1.1273   -0.3622 H   0  0  0  0  0  0  0  0  0  0  0  0
   -1.7571    1.0521    1.0554 H   0  0  0  0  0  0  0  0  0  0  0  0
   -1.9180   -1.2681    0.7363 H   0  0  0  0  0  0  0  0  0  0  0  0
   -2.4168   -1.0999   -0.9546 H   0  0  0  0  0  0  0  0  0  0  0  0
   -0.1674   -1.1899   -1.6857 H   0  0  0  0  0  0  0  0  0  0  0  0
    0.2305   -1.9844    1.2610 H   0  0  0  0  0  0  0  0  0  0  0  0
    1.4844   -2.1997   -0.0543 H   0  0  0  0  0  0  0  0  0  0  0  0
  1  2  1  0
  2  3  1  0
  3  4  1  0
  4  5  2  0
  5  6  1  0
  6  7  1  0
  7  8  1  0
  8  9  1  0
  8  3  1  0
  9  3  1  0
  1 10  1  0
  2 11  1  0
  2 12  1  0
  4 13  1  0
  5 14  1  0
  6 15  1  0
  6 16  1  0
  7 17  1  0
  7 18  1  0
  8 19  1  0
  9 20  1  0
  9 21  1  0
M  END
