
     RDKit          3D

 21 21  0  0  0  0  0  0  0  0999 V2000
    2.8571    0.4297   -0.9023 O   0  0  0  0  0  0  0  0  0  0  0  0
    2.2055    0.1370    0.2952 C   0  0  0  0  0  0  0  0  0  0  0  0
    0.7410    0.3579    0.0787 C   0  0  0  0  0  0  0  0  0  0  0  0
   -0.0956    0.0777    1.3027 C   0  0  0  0  0  0  0  0  0  0  0  0
   -1.4920    0.0325    0.6989 C   0  0  0  0  0  0  0  0  0  0  0  0
   -2.0447    1.2994    0.8813 O   0  0  0  0  0  0  0  0  0  0  0  0
   -1.3068   -0.2369   -0.7758 C   0  0  0  0  0  0  0  0  0  0  0  0
   -2.1961   -1.1650   -1.2774 O   0  0  0  0  0  0  0  0  0  0  0  0
    0.1290   -0.6462   -0.8768 C   0  0  0  0  0  0  0  0  0  0  0  0
    2.6154    1.3702   -1.1507 H   0  0  0  0  0  0  0  0  0  0  0  0
    2.3467   -0.9671    0.4506 H   0  0  0  0  0  0  0  0  0  0  0  0
    2.6213    0.7016    1.1369 H   0  0  0  0  0  0  0  0  0  0  0  0
    0.5042    1.3912   -0.2573 H   0  0  0  0  0  0  0  0  0  0  0  0
    0.0024    0.8288    2.0830 H   0  0  0  0  0  0  0  0  0  0  0  0
    0.1492   -0.9153    1.7094 H   0  0  0  0  0  0  0  0  0  0  0  0
   -2.1067   -0.7677    1.1302 H   0  0  0  0  0  0  0  0  0  0  0  0
   -2.3486    1.6356    0.0196 H   0  0  0  0  0  0  0  0  0  0  0  0
   -1.4095    0.7331   -1.3305 H   0  0  0  0  0  0  0  0  0  0  0  0
   -1.9679   -2.0579   -0.9281 H   0  0  0  0  0  0  0  0  0  0  0  0
    0.2509   -1.6432   -0.3993 H   0  0  0  0  0  0  0  0  0  0  0  0
    0.5450   -0.5952   -1.8883 H   0  0  0  0  0  0  0  0  0  0  0  0
  1  2  1  0
  2  3  1  0
  3  4  1  0
  4  5  1  0
  5  6  1  0
  5  7  1  0
  7  8  1  0
  7  9  1  0
  9  3  1  0
  1 10  1  0
  2 11  1  0
  2 12  1  0
  3 13  1  0
  4 14  1  0
  4 15  1  0
  5 16  1  0
  6 17  1  0
  7 18  1  0
  8 19  1  0
  9 20  1  0
  9 21  1  0
M  END
