
     RDKit          3D

 19 20  0  0  0  0  0  0  0  0999 V2000
    2.1072    0.9531   -0.4466 O   0  0  0  0  0  0  0  0  0  0  0  0
    1.9190   -0.4025   -0.3860 C   0  0  0  0  0  0  0  0  0  0  0  0
    0.5754   -0.7514    0.1345 C   0  0  0  0  0  0  0  0  0  0  0  0
    0.3284   -0.2738    1.4236 O   0  0  0  0  0  0  0  0  0  0  0  0
   -0.9358    0.2499    1.3247 C   0  0  0  0  0  0  0  0  0  0  0  0
   -0.7873    1.1678    0.1012 C   0  0  0  0  0  0  0  0  0  0  0  0
   -0.5863   -0.1650   -0.5925 C   0  0  0  0  0  0  0  0  0  0  0  0
   -0.7524   -0.2819   -1.8910 O   0  0  0  0  0  0  0  0  0  0  0  0
   -1.7063   -0.6554    0.3478 C   0  0  0  0  0  0  0  0  0  0  0  0
    2.4470    1.2659    0.4139 H   0  0  0  0  0  0  0  0  0  0  0  0
    2.1637   -0.9264   -1.3355 H   0  0  0  0  0  0  0  0  0  0  0  0
    2.6675   -0.8249    0.3496 H   0  0  0  0  0  0  0  0  0  0  0  0
    0.4175   -1.8697    0.1409 H   0  0  0  0  0  0  0  0  0  0  0  0
   -1.4595    0.6266    2.1624 H   0  0  0  0  0  0  0  0  0  0  0  0
   -1.7788    1.5750   -0.1821 H   0  0  0  0  0  0  0  0  0  0  0  0
    0.0462    1.8588    0.1306 H   0  0  0  0  0  0  0  0  0  0  0  0
   -0.3788    0.4222   -2.4434 H   0  0  0  0  0  0  0  0  0  0  0  0
   -1.5974   -1.6975    0.6435 H   0  0  0  0  0  0  0  0  0  0  0  0
   -2.6894   -0.2707    0.1043 H   0  0  0  0  0  0  0  0  0  0  0  0
  1  2  1  0
  2  3  1  0
  3  4  1  0
  4  5  1  0
  5  6  1  0
  6  7  1  0
  7  8  1  0
  7  9  1  0
  7  3  1  0
  9  5  1  0
  1 10  1  0
  2 11  1  0
  2 12  1  0
  3 13  1  0
  5 14  1  0
  6 15  1  0
  6 16  1  0
  8 17  1  0
  9 18  1  0
  9 19  1  0
M  END
