
     RDKit          3D

 21 23  0  0  0  0  0  0  0  0999 V2000
    2.0837   -1.3381   -0.8872 O   0  0  0  0  0  0  0  0  0  0  0  0
    1.1201   -1.4602    0.1344 C   0  0  0  0  0  0  0  0  0  0  0  0
    0.5652   -0.1086    0.5206 C   0  0  0  0  0  0  0  0  0  0  0  0
    1.4784    0.9276    1.0364 C   0  0  0  0  0  0  0  0  0  0  0  0
    1.0757    1.0661   -0.3752 C   0  0  0  0  0  0  0  0  0  0  0  0
   -0.3402    1.3938   -0.7444 C   0  0  0  0  0  0  0  0  0  0  0  0
   -0.7957    0.2214    0.0433 C   0  0  0  0  0  0  0  0  0  0  0  0
   -2.0055    0.2225    0.8367 C   0  0  0  0  0  0  0  0  0  0  0  0
   -1.8141   -0.7200   -0.3399 C   0  0  0  0  0  0  0  0  0  0  0  0
    1.5995   -1.2283   -1.7366 H   0  0  0  0  0  0  0  0  0  0  0  0
    1.4862   -2.0354    0.9906 H   0  0  0  0  0  0  0  0  0  0  0  0
    0.2946   -2.0761   -0.3220 H   0  0  0  0  0  0  0  0  0  0  0  0
    1.1741    1.6593    1.8104 H   0  0  0  0  0  0  0  0  0  0  0  0
    2.5362    0.5864    1.1902 H   0  0  0  0  0  0  0  0  0  0  0  0
    1.7412    0.7977   -1.1955 H   0  0  0  0  0  0  0  0  0  0  0  0
   -0.5463    1.2825   -1.8246 H   0  0  0  0  0  0  0  0  0  0  0  0
   -0.7101    2.3676   -0.3340 H   0  0  0  0  0  0  0  0  0  0  0  0
   -2.7603    1.0260    0.6027 H   0  0  0  0  0  0  0  0  0  0  0  0
   -2.0620   -0.1934    1.8577 H   0  0  0  0  0  0  0  0  0  0  0  0
   -2.4091   -0.6022   -1.2445 H   0  0  0  0  0  0  0  0  0  0  0  0
   -1.7116   -1.7886   -0.0191 H   0  0  0  0  0  0  0  0  0  0  0  0
  1  2  1  0
  2  3  1  0
  3  4  1  0
  4  5  1  0
  5  6  1  0
  6  7  1  0
  7  8  1  0
  8  9  1  0
  5  3  1  0
  9  7  1  0
  7  3  1  0
  1 10  1  0
  2 11  1  0
  2 12  1  0
  4 13  1  0
  4 14  1  0
  5 15  1  0
  6 16  1  0
  6 17  1  0
  8 18  1  0
  8 19  1  0
  9 20  1  0
  9 21  1  0
M  END
