
     RDKit          3D

 23 24  0  0  0  0  0  0  0  0999 V2000
   -2.0106   -1.3234    0.8527 O   0  0  0  0  0  0  0  0  0  0  0  0
   -2.0589   -0.7655   -0.4080 C   0  0  0  0  0  0  0  0  0  0  0  0
   -0.9136    0.1187   -0.7463 C   0  0  0  0  0  0  0  0  0  0  0  0
   -0.7805    1.2855    0.1761 C   0  0  0  0  0  0  0  0  0  0  0  0
    0.6928    1.5932    0.2986 C   0  0  0  0  0  0  0  0  0  0  0  0
    1.4437    0.5292   -0.4645 C   0  0  0  0  0  0  0  0  0  0  0  0
    2.1443   -0.4520    0.4428 C   0  0  0  0  0  0  0  0  0  0  0  0
    0.8833   -1.3237    0.3753 C   0  0  0  0  0  0  0  0  0  0  0  0
    0.4270   -0.5400   -0.8078 C   0  0  0  0  0  0  0  0  0  0  0  0
   -2.4480   -0.7559    1.5378 H   0  0  0  0  0  0  0  0  0  0  0  0
   -2.9897   -0.1249   -0.4283 H   0  0  0  0  0  0  0  0  0  0  0  0
   -2.2507   -1.5439   -1.1770 H   0  0  0  0  0  0  0  0  0  0  0  0
   -1.1036    0.5335   -1.7795 H   0  0  0  0  0  0  0  0  0  0  0  0
   -1.2042    1.0772    1.1960 H   0  0  0  0  0  0  0  0  0  0  0  0
   -1.2919    2.1893   -0.2111 H   0  0  0  0  0  0  0  0  0  0  0  0
    1.0101    1.6140    1.3606 H   0  0  0  0  0  0  0  0  0  0  0  0
    0.9224    2.6040   -0.1148 H   0  0  0  0  0  0  0  0  0  0  0  0
    2.0179    0.9467   -1.2904 H   0  0  0  0  0  0  0  0  0  0  0  0
    2.2891   -0.0858    1.4800 H   0  0  0  0  0  0  0  0  0  0  0  0
    3.0481   -0.9181    0.0577 H   0  0  0  0  0  0  0  0  0  0  0  0
    1.1963   -2.3779    0.1236 H   0  0  0  0  0  0  0  0  0  0  0  0
    0.2732   -1.2722    1.2996 H   0  0  0  0  0  0  0  0  0  0  0  0
    0.7035   -1.0082   -1.7731 H   0  0  0  0  0  0  0  0  0  0  0  0
  1  2  1  0
  2  3  1  0
  3  4  1  0
  4  5  1  0
  5  6  1  0
  6  7  1  0
  7  8  1  0
  8  9  1  0
  9  3  1  0
  9  6  1  0
  1 10  1  0
  2 11  1  0
  2 12  1  0
  3 13  1  0
  4 14  1  0
  4 15  1  0
  5 16  1  0
  5 17  1  0
  6 18  1  0
  7 19  1  0
  7 20  1  0
  8 21  1  0
  8 22  1  0
  9 23  1  0
M  END
