
     RDKit          3D

 19 19  0  0  0  0  0  0  0  0999 V2000
    2.9075   -0.4615    0.2989 O   0  0  0  0  0  0  0  0  0  0  0  0
    2.1890    0.3466   -0.6074 C   0  0  0  0  0  0  0  0  0  0  0  0
    0.7365    0.1429   -0.2394 C   0  0  0  0  0  0  0  0  0  0  0  0
   -0.0516    1.1176    0.1437 C   0  0  0  0  0  0  0  0  0  0  0  0
   -1.3995    0.5544    0.4214 C   0  0  0  0  0  0  0  0  0  0  0  0
   -2.3742    1.4043   -0.1097 O   0  0  0  0  0  0  0  0  0  0  0  0
   -1.3997   -0.7803   -0.3206 C   0  0  0  0  0  0  0  0  0  0  0  0
   -2.1138   -1.6787    0.4942 O   0  0  0  0  0  0  0  0  0  0  0  0
    0.0638   -1.1629   -0.2695 C   0  0  0  0  0  0  0  0  0  0  0  0
    2.8472    0.0430    1.1715 H   0  0  0  0  0  0  0  0  0  0  0  0
    2.4648    1.3989   -0.5167 H   0  0  0  0  0  0  0  0  0  0  0  0
    2.3889   -0.0154   -1.6240 H   0  0  0  0  0  0  0  0  0  0  0  0
    0.2215    2.1975    0.2506 H   0  0  0  0  0  0  0  0  0  0  0  0
   -1.5918    0.4226    1.5017 H   0  0  0  0  0  0  0  0  0  0  0  0
   -1.9674    2.2968   -0.2025 H   0  0  0  0  0  0  0  0  0  0  0  0
   -1.8034   -0.7059   -1.3289 H   0  0  0  0  0  0  0  0  0  0  0  0
   -1.7014   -1.5955    1.4103 H   0  0  0  0  0  0  0  0  0  0  0  0
    0.2423   -1.7500    0.6805 H   0  0  0  0  0  0  0  0  0  0  0  0
    0.3413   -1.7745   -1.1541 H   0  0  0  0  0  0  0  0  0  0  0  0
  1  2  1  0
  2  3  1  0
  3  4  2  0
  4  5  1  0
  5  6  1  0
  5  7  1  0
  7  8  1  0
  7  9  1  0
  9  3  1  0
  1 10  1  0
  2 11  1  0
  2 12  1  0
  4 13  1  0
  5 14  1  0
  6 15  1  0
  7 16  1  0
  8 17  1  0
  9 18  1  0
  9 19  1  0
M  END
