
     RDKit          3D

 19 20  0  0  0  0  0  0  0  0999 V2000
    3.2592   -0.7575   -0.4811 O   0  0  0  0  0  0  0  0  0  0  0  0
    2.2865    0.2160   -0.3934 C   0  0  0  0  0  0  0  0  0  0  0  0
    0.8950   -0.2953   -0.6301 C   0  0  0  0  0  0  0  0  0  0  0  0
   -0.1792    0.7559   -0.5379 C   0  0  0  0  0  0  0  0  0  0  0  0
   -1.6080    0.4207   -0.7877 C   0  0  0  0  0  0  0  0  0  0  0  0
   -2.4404    1.3542   -0.1318 O   0  0  0  0  0  0  0  0  0  0  0  0
   -1.4802   -0.8314    0.0485 C   0  0  0  0  0  0  0  0  0  0  0  0
   -2.3931   -0.9017    1.0762 O   0  0  0  0  0  0  0  0  0  0  0  0
   -0.1032   -0.3519    0.4588 C   0  0  0  0  0  0  0  0  0  0  0  0
    4.0559   -0.4349    0.0176 H   0  0  0  0  0  0  0  0  0  0  0  0
    2.4979    0.9917   -1.1792 H   0  0  0  0  0  0  0  0  0  0  0  0
    2.3920    0.7051    0.6028 H   0  0  0  0  0  0  0  0  0  0  0  0
    0.7909   -0.9961   -1.4801 H   0  0  0  0  0  0  0  0  0  0  0  0
    0.0873    1.7577   -0.1417 H   0  0  0  0  0  0  0  0  0  0  0  0
   -1.8633    0.2676   -1.8434 H   0  0  0  0  0  0  0  0  0  0  0  0
   -1.9774    1.7457    0.6520 H   0  0  0  0  0  0  0  0  0  0  0  0
   -1.3641   -1.7711   -0.5557 H   0  0  0  0  0  0  0  0  0  0  0  0
   -2.9912   -1.7053    1.0171 H   0  0  0  0  0  0  0  0  0  0  0  0
    0.1352   -0.1695    1.5042 H   0  0  0  0  0  0  0  0  0  0  0  0
  1  2  1  0
  2  3  1  0
  3  4  1  0
  4  5  1  0
  5  6  1  0
  5  7  1  0
  7  8  1  0
  7  9  1  0
  9  3  1  0
  9  4  1  0
  1 10  1  0
  2 11  1  0
  2 12  1  0
  3 13  1  0
  4 14  1  0
  5 15  1  0
  6 16  1  0
  7 17  1  0
  8 18  1  0
  9 19  1  0
M  END
