
     RDKit          3D

 19 19  0  0  0  0  0  0  0  0999 V2000
   -0.8928   -2.2860    0.7586 O   0  0  0  0  0  0  0  0  0  0  0  0
   -1.0223   -1.2955   -0.2141 C   0  0  0  0  0  0  0  0  0  0  0  0
   -0.0069   -0.2018   -0.0478 C   0  0  0  0  0  0  0  0  0  0  0  0
    1.4034   -0.6731   -0.3139 C   0  0  0  0  0  0  0  0  0  0  0  0
    2.2305    0.4637   -0.2463 O   0  0  0  0  0  0  0  0  0  0  0  0
   -0.3470    0.8816   -1.0549 C   0  0  0  0  0  0  0  0  0  0  0  0
   -1.2146    1.6850   -0.3051 O   0  0  0  0  0  0  0  0  0  0  0  0
   -0.7547    1.6280    0.9982 C   0  0  0  0  0  0  0  0  0  0  0  0
   -0.1593    0.3873    1.1772 O   0  0  0  0  0  0  0  0  0  0  0  0
   -0.6619   -1.8853    1.6189 H   0  0  0  0  0  0  0  0  0  0  0  0
   -2.0230   -0.8392   -0.0619 H   0  0  0  0  0  0  0  0  0  0  0  0
   -0.9248   -1.6967   -1.2406 H   0  0  0  0  0  0  0  0  0  0  0  0
    1.7365   -1.4458    0.3837 H   0  0  0  0  0  0  0  0  0  0  0  0
    1.4685   -1.0235   -1.3647 H   0  0  0  0  0  0  0  0  0  0  0  0
    3.0767    0.2666    0.2522 H   0  0  0  0  0  0  0  0  0  0  0  0
   -0.8566    0.4823   -1.9484 H   0  0  0  0  0  0  0  0  0  0  0  0
    0.5881    1.4101   -1.2829 H   0  0  0  0  0  0  0  0  0  0  0  0
    0.0022    2.3987    1.2200 H   0  0  0  0  0  0  0  0  0  0  0  0
   -1.6421    1.7436    1.6716 H   0  0  0  0  0  0  0  0  0  0  0  0
  1  2  1  0
  2  3  1  0
  3  4  1  0
  4  5  1  0
  3  6  1  0
  6  7  1  0
  7  8  1  0
  8  9  1  0
  9  3  1  0
  1 10  1  0
  2 11  1  0
  2 12  1  0
  4 13  1  0
  4 14  1  0
  5 15  1  0
  6 16  1  0
  6 17  1  0
  8 18  1  0
  8 19  1  0
M  END
