
     RDKit          3D

 19 20  0  0  0  0  0  0  0  0999 V2000
    2.6539    0.0553    0.8002 O   0  0  0  0  0  0  0  0  0  0  0  0
    1.8121    0.7979   -0.0178 C   0  0  0  0  0  0  0  0  0  0  0  0
    0.3946    0.2991    0.0413 C   0  0  0  0  0  0  0  0  0  0  0  0
   -0.4990    0.9747   -0.9432 C   0  0  0  0  0  0  0  0  0  0  0  0
   -1.5651    0.1166   -1.2118 O   0  0  0  0  0  0  0  0  0  0  0  0
   -2.0975   -0.2851    0.0106 C   0  0  0  0  0  0  0  0  0  0  0  0
   -0.9731   -0.7726    0.8774 C   0  0  0  0  0  0  0  0  0  0  0  0
    0.2345   -1.1953    0.0636 C   0  0  0  0  0  0  0  0  0  0  0  0
   -0.2003    0.3351    1.2994 O   0  0  0  0  0  0  0  0  0  0  0  0
    2.7925   -0.8233    0.3401 H   0  0  0  0  0  0  0  0  0  0  0  0
    2.1522    0.6985   -1.0688 H   0  0  0  0  0  0  0  0  0  0  0  0
    1.8761    1.8743    0.2423 H   0  0  0  0  0  0  0  0  0  0  0  0
    0.0401    1.3002   -1.8339 H   0  0  0  0  0  0  0  0  0  0  0  0
   -0.9510    1.8652   -0.4318 H   0  0  0  0  0  0  0  0  0  0  0  0
   -2.8514   -1.0682   -0.1395 H   0  0  0  0  0  0  0  0  0  0  0  0
   -2.5281    0.6165    0.4917 H   0  0  0  0  0  0  0  0  0  0  0  0
   -1.2677   -1.4563    1.6839 H   0  0  0  0  0  0  0  0  0  0  0  0
    0.9723   -1.6733    0.7039 H   0  0  0  0  0  0  0  0  0  0  0  0
    0.0051   -1.6594   -0.9076 H   0  0  0  0  0  0  0  0  0  0  0  0
  1  2  1  0
  2  3  1  0
  3  4  1  0
  4  5  1  0
  5  6  1  0
  6  7  1  0
  7  8  1  0
  7  9  1  0
  8  3  1  0
  9  3  1  0
  1 10  1  0
  2 11  1  0
  2 12  1  0
  4 13  1  0
  4 14  1  0
  6 15  1  0
  6 16  1  0
  7 17  1  0
  8 18  1  0
  8 19  1  0
M  END
