
     RDKit          3D

 18 18  0  0  0  0  0  0  0  0999 V2000
    2.6218    0.9213    0.5642 O   0  0  0  0  0  0  0  0  0  0  0  0
    2.0331   -0.2865    0.2004 C   0  0  0  0  0  0  0  0  0  0  0  0
    0.5524   -0.1636    0.1424 C   0  0  0  0  0  0  0  0  0  0  0  0
   -0.1521    0.9335    0.3963 C   0  0  0  0  0  0  0  0  0  0  0  0
   -1.5906    0.6041    0.2186 C   0  0  0  0  0  0  0  0  0  0  0  0
   -1.4899   -0.4591   -0.8586 C   0  0  0  0  0  0  0  0  0  0  0  0
   -1.0220    0.1490   -2.0365 O   0  0  0  0  0  0  0  0  0  0  0  0
   -0.3661   -1.2890   -0.2222 C   0  0  0  0  0  0  0  0  0  0  0  0
    2.8693    1.4175   -0.2768 H   0  0  0  0  0  0  0  0  0  0  0  0
    2.3667   -1.0549    0.9290 H   0  0  0  0  0  0  0  0  0  0  0  0
    2.4428   -0.6097   -0.7963 H   0  0  0  0  0  0  0  0  0  0  0  0
    0.2810    1.8863    0.6811 H   0  0  0  0  0  0  0  0  0  0  0  0
   -1.9738    0.1295    1.1416 H   0  0  0  0  0  0  0  0  0  0  0  0
   -2.1897    1.4474   -0.1328 H   0  0  0  0  0  0  0  0  0  0  0  0
   -2.3982   -1.0326   -1.0005 H   0  0  0  0  0  0  0  0  0  0  0  0
   -1.2807    1.1028   -1.9884 H   0  0  0  0  0  0  0  0  0  0  0  0
    0.0728   -1.9942   -0.9158 H   0  0  0  0  0  0  0  0  0  0  0  0
   -0.7768   -1.7017    0.6974 H   0  0  0  0  0  0  0  0  0  0  0  0
  1  2  1  0
  2  3  1  0
  3  4  2  0
  4  5  1  0
  5  6  1  0
  6  7  1  0
  6  8  1  0
  8  3  1  0
  1  9  1  0
  2 10  1  0
  2 11  1  0
  4 12  1  0
  5 13  1  0
  5 14  1  0
  6 15  1  0
  7 16  1  0
  8 17  1  0
  8 18  1  0
M  END
