
     RDKit          3D

 21 22  0  0  0  0  0  0  0  0999 V2000
    2.5884    0.6953    1.1128 O   0  0  0  0  0  0  0  0  0  0  0  0
    1.5260    1.0151    0.2331 C   0  0  0  0  0  0  0  0  0  0  0  0
    0.8837   -0.2349   -0.2413 C   0  0  0  0  0  0  0  0  0  0  0  0
   -0.2736   -0.1293   -1.1955 C   0  0  0  0  0  0  0  0  0  0  0  0
   -1.2808    0.9138   -0.8438 C   0  0  0  0  0  0  0  0  0  0  0  0
   -1.4083    1.1155    0.5132 O   0  0  0  0  0  0  0  0  0  0  0  0
   -1.1108    0.0128    1.2797 C   0  0  0  0  0  0  0  0  0  0  0  0
   -0.0987   -0.8989    0.7019 C   0  0  0  0  0  0  0  0  0  0  0  0
   -0.7189   -1.4732   -0.5853 C   0  0  0  0  0  0  0  0  0  0  0  0
    3.2931    0.1673    0.6313 H   0  0  0  0  0  0  0  0  0  0  0  0
    0.8118    1.5799    0.8625 H   0  0  0  0  0  0  0  0  0  0  0  0
    1.9520    1.6456   -0.5520 H   0  0  0  0  0  0  0  0  0  0  0  0
    1.5996   -0.9874   -0.6485 H   0  0  0  0  0  0  0  0  0  0  0  0
   -0.0311   -0.1994   -2.2636 H   0  0  0  0  0  0  0  0  0  0  0  0
   -0.9504    1.8848   -1.2878 H   0  0  0  0  0  0  0  0  0  0  0  0
   -2.2729    0.6720   -1.3002 H   0  0  0  0  0  0  0  0  0  0  0  0
   -2.0687   -0.5690    1.3717 H   0  0  0  0  0  0  0  0  0  0  0  0
   -0.8891    0.3522    2.3106 H   0  0  0  0  0  0  0  0  0  0  0  0
    0.3556   -1.6482    1.3527 H   0  0  0  0  0  0  0  0  0  0  0  0
   -0.1108   -2.3121   -0.9421 H   0  0  0  0  0  0  0  0  0  0  0  0
   -1.7961   -1.6022   -0.5093 H   0  0  0  0  0  0  0  0  0  0  0  0
  1  2  1  0
  2  3  1  0
  3  4  1  0
  4  5  1  0
  5  6  1  0
  6  7  1  0
  7  8  1  0
  8  9  1  0
  8  3  1  0
  9  4  1  0
  1 10  1  0
  2 11  1  0
  2 12  1  0
  3 13  1  0
  4 14  1  0
  5 15  1  0
  5 16  1  0
  7 17  1  0
  7 18  1  0
  8 19  1  0
  9 20  1  0
  9 21  1  0
M  END
