
     RDKit          3D

 21 23  0  0  0  0  0  0  0  0999 V2000
   -2.7979   -0.0922   -1.0436 O   0  0  0  0  0  0  0  0  0  0  0  0
   -2.4294   -0.7134    0.1720 C   0  0  0  0  0  0  0  0  0  0  0  0
   -0.9837   -0.3604    0.4814 C   0  0  0  0  0  0  0  0  0  0  0  0
   -0.0239   -0.8292   -0.6091 C   0  0  0  0  0  0  0  0  0  0  0  0
    1.4125   -1.0499   -0.1442 C   0  0  0  0  0  0  0  0  0  0  0  0
    2.0500    0.2982   -0.0771 C   0  0  0  0  0  0  0  0  0  0  0  0
    1.6921    1.1044    1.1603 C   0  0  0  0  0  0  0  0  0  0  0  0
    0.9318    1.3150   -0.0663 C   0  0  0  0  0  0  0  0  0  0  0  0
   -0.3328    0.6151   -0.4025 C   0  0  0  0  0  0  0  0  0  0  0  0
   -2.9985    0.8651   -0.8903 H   0  0  0  0  0  0  0  0  0  0  0  0
   -3.1194   -0.4478    0.9773 H   0  0  0  0  0  0  0  0  0  0  0  0
   -2.5299   -1.8193   -0.0372 H   0  0  0  0  0  0  0  0  0  0  0  0
   -0.6593   -0.5016    1.5410 H   0  0  0  0  0  0  0  0  0  0  0  0
   -0.4042   -1.3986   -1.4581 H   0  0  0  0  0  0  0  0  0  0  0  0
    1.9430   -1.7886   -0.7438 H   0  0  0  0  0  0  0  0  0  0  0  0
    1.3171   -1.4281    0.9121 H   0  0  0  0  0  0  0  0  0  0  0  0
    2.9827    0.5144   -0.6139 H   0  0  0  0  0  0  0  0  0  0  0  0
    2.4577    1.8498    1.4270 H   0  0  0  0  0  0  0  0  0  0  0  0
    1.2936    0.5596    2.0467 H   0  0  0  0  0  0  0  0  0  0  0  0
    1.1618    2.2382   -0.6593 H   0  0  0  0  0  0  0  0  0  0  0  0
   -0.9636    1.0695   -1.2066 H   0  0  0  0  0  0  0  0  0  0  0  0
  1  2  1  0
  2  3  1  0
  3  4  1  0
  4  5  1  0
  5  6  1  0
  6  7  1  0
  7  8  1  0
  8  9  1  0
  9  3  1  0
  9  4  1  0
  8  6  1  0
  1 10  1  0
  2 11  1  0
  2 12  1  0
  3 13  1  0
  4 14  1  0
  5 15  1  0
  5 16  1  0
  6 17  1  0
  7 18  1  0
  7 19  1  0
  8 20  1  0
  9 21  1  0
M  END
