
     RDKit          3D

 19 20  0  0  0  0  0  0  0  0999 V2000
    2.7113   -0.5555    1.1641 O   0  0  0  0  0  0  0  0  0  0  0  0
    2.0218    0.4368    0.4689 C   0  0  0  0  0  0  0  0  0  0  0  0
    0.8444   -0.1593   -0.3167 C   0  0  0  0  0  0  0  0  0  0  0  0
    1.3379   -1.1080   -1.2420 O   0  0  0  0  0  0  0  0  0  0  0  0
   -0.3496   -0.4666    0.3478 C   0  0  0  0  0  0  0  0  0  0  0  0
   -1.7556   -0.7062   -0.0664 C   0  0  0  0  0  0  0  0  0  0  0  0
   -2.2346    0.7604   -0.0169 C   0  0  0  0  0  0  0  0  0  0  0  0
   -1.0463    1.5370   -0.0332 O   0  0  0  0  0  0  0  0  0  0  0  0
   -0.1825    0.7183   -0.6901 C   0  0  0  0  0  0  0  0  0  0  0  0
    3.5542   -0.7428    0.6486 H   0  0  0  0  0  0  0  0  0  0  0  0
    1.5715    1.1253    1.2394 H   0  0  0  0  0  0  0  0  0  0  0  0
    2.6934    1.0139   -0.1628 H   0  0  0  0  0  0  0  0  0  0  0  0
    1.5997   -1.8941   -0.6873 H   0  0  0  0  0  0  0  0  0  0  0  0
   -0.3800   -0.1383    1.4367 H   0  0  0  0  0  0  0  0  0  0  0  0
   -1.8843   -1.0087   -1.1224 H   0  0  0  0  0  0  0  0  0  0  0  0
   -2.3195   -1.3121    0.6415 H   0  0  0  0  0  0  0  0  0  0  0  0
   -2.6961    0.9719    0.9771 H   0  0  0  0  0  0  0  0  0  0  0  0
   -2.8731    1.0048   -0.8641 H   0  0  0  0  0  0  0  0  0  0  0  0
   -0.6126    0.5233   -1.7223 H   0  0  0  0  0  0  0  0  0  0  0  0
  1  2  1  0
  2  3  1  0
  3  4  1  0
  3  5  1  0
  5  6  1  0
  6  7  1  0
  7  8  1  0
  8  9  1  0
  9  3  1  0
  9  5  1  0
  1 10  1  0
  2 11  1  0
  2 12  1  0
  4 13  1  0
  5 14  1  0
  6 15  1  0
  6 16  1  0
  7 17  1  0
  7 18  1  0
  9 19  1  0
M  END
