
     RDKit          3D

 19 22  0  0  0  0  0  0  0  0999 V2000
    2.6255   -1.2120   -0.3245 O   0  0  0  0  0  0  0  0  0  0  0  0
    2.0200    0.0384   -0.3642 C   0  0  0  0  0  0  0  0  0  0  0  0
    0.5734    0.0207   -0.0711 C   0  0  0  0  0  0  0  0  0  0  0  0
    0.0412   -0.4839    1.2394 C   0  0  0  0  0  0  0  0  0  0  0  0
   -1.4342   -0.1221    1.1337 C   0  0  0  0  0  0  0  0  0  0  0  0
   -1.7368   -0.3441   -0.2848 C   0  0  0  0  0  0  0  0  0  0  0  0
   -1.4860    1.0795    0.3040 C   0  0  0  0  0  0  0  0  0  0  0  0
   -0.2572    1.1316   -0.5172 C   0  0  0  0  0  0  0  0  0  0  0  0
   -0.4880   -0.2095   -1.0477 C   0  0  0  0  0  0  0  0  0  0  0  0
    2.2387   -1.8572   -0.9565 H   0  0  0  0  0  0  0  0  0  0  0  0
    2.2091    0.5922   -1.2961 H   0  0  0  0  0  0  0  0  0  0  0  0
    2.5221    0.6420    0.4483 H   0  0  0  0  0  0  0  0  0  0  0  0
    0.5165   -0.0296    2.1227 H   0  0  0  0  0  0  0  0  0  0  0  0
    0.0904   -1.5837    1.3321 H   0  0  0  0  0  0  0  0  0  0  0  0
   -2.1109   -0.3225    1.9586 H   0  0  0  0  0  0  0  0  0  0  0  0
   -2.7093   -0.5549   -0.6998 H   0  0  0  0  0  0  0  0  0  0  0  0
   -2.3312    1.7400    0.1855 H   0  0  0  0  0  0  0  0  0  0  0  0
    0.0658    1.9930   -1.0853 H   0  0  0  0  0  0  0  0  0  0  0  0
   -0.3492   -0.5178   -2.0770 H   0  0  0  0  0  0  0  0  0  0  0  0
  1  2  1  0
  2  3  1  0
  3  4  1  0
  4  5  1  0
  5  6  1  0
  6  7  1  0
  7  8  1  0
  8  9  1  0
  8  3  1  0
  9  3  1  0
  7  5  1  0
  9  6  1  0
  1 10  1  0
  2 11  1  0
  2 12  1  0
  4 13  1  0
  4 14  1  0
  5 15  1  0
  6 16  1  0
  7 17  1  0
  8 18  1  0
  9 19  1  0
M  END
