
     RDKit          3D

 21 21  0  0  0  0  0  0  0  0999 V2000
   -0.2417   -2.1082   -0.9504 O   0  0  0  0  0  0  0  0  0  0  0  0
   -1.0045   -0.9591   -0.8929 C   0  0  0  0  0  0  0  0  0  0  0  0
   -0.2464    0.1726   -0.2652 C   0  0  0  0  0  0  0  0  0  0  0  0
   -1.0872    1.4196   -0.2078 C   0  0  0  0  0  0  0  0  0  0  0  0
   -0.4216    2.4832    0.3644 O   0  0  0  0  0  0  0  0  0  0  0  0
    0.1889   -0.2814    1.1168 C   0  0  0  0  0  0  0  0  0  0  0  0
    1.5752   -0.7935    0.8568 C   0  0  0  0  0  0  0  0  0  0  0  0
    1.7894   -0.7438   -0.5152 O   0  0  0  0  0  0  0  0  0  0  0  0
    1.0923    0.4063   -0.9232 C   0  0  0  0  0  0  0  0  0  0  0  0
   -0.3715   -2.6883   -0.1382 H   0  0  0  0  0  0  0  0  0  0  0  0
   -1.8888   -1.1597   -0.2330 H   0  0  0  0  0  0  0  0  0  0  0  0
   -1.3508   -0.6379   -1.8943 H   0  0  0  0  0  0  0  0  0  0  0  0
   -2.0093    1.1682    0.3555 H   0  0  0  0  0  0  0  0  0  0  0  0
   -1.3910    1.6565   -1.2451 H   0  0  0  0  0  0  0  0  0  0  0  0
   -0.9260    2.8315    1.1416 H   0  0  0  0  0  0  0  0  0  0  0  0
   -0.4652   -1.0637    1.5099 H   0  0  0  0  0  0  0  0  0  0  0  0
    0.1668    0.5806    1.8151 H   0  0  0  0  0  0  0  0  0  0  0  0
    1.6487   -1.8682    1.1466 H   0  0  0  0  0  0  0  0  0  0  0  0
    2.3266   -0.1866    1.3704 H   0  0  0  0  0  0  0  0  0  0  0  0
    1.0476    0.5053   -2.0059 H   0  0  0  0  0  0  0  0  0  0  0  0
    1.5685    1.2667   -0.4058 H   0  0  0  0  0  0  0  0  0  0  0  0
  1  2  1  0
  2  3  1  0
  3  4  1  0
  4  5  1  0
  3  6  1  0
  6  7  1  0
  7  8  1  0
  8  9  1  0
  9  3  1  0
  1 10  1  0
  2 11  1  0
  2 12  1  0
  4 13  1  0
  4 14  1  0
  5 15  1  0
  6 16  1  0
  6 17  1  0
  7 18  1  0
  7 19  1  0
  9 20  1  0
  9 21  1  0
M  END
