
     RDKit          3D

 21 22  0  0  0  0  0  0  0  0999 V2000
    2.5820   -0.2246    0.9446 O   0  0  0  0  0  0  0  0  0  0  0  0
    1.7642   -0.7100   -0.0901 C   0  0  0  0  0  0  0  0  0  0  0  0
    0.4444   -0.1369   -0.0148 C   0  0  0  0  0  0  0  0  0  0  0  0
    0.2847    1.3682   -0.1148 C   0  0  0  0  0  0  0  0  0  0  0  0
   -1.0342    1.0751    0.6218 C   0  0  0  0  0  0  0  0  0  0  0  0
   -1.7749    0.3275   -0.4365 C   0  0  0  0  0  0  0  0  0  0  0  0
   -0.7025   -0.7318   -0.7774 C   0  0  0  0  0  0  0  0  0  0  0  0
   -0.4974   -0.8344   -2.1270 O   0  0  0  0  0  0  0  0  0  0  0  0
   -0.1976    0.0289    1.3728 C   0  0  0  0  0  0  0  0  0  0  0  0
    2.3035   -0.7192    1.7594 H   0  0  0  0  0  0  0  0  0  0  0  0
    1.7818   -1.8043   -0.1504 H   0  0  0  0  0  0  0  0  0  0  0  0
    2.2736   -0.3547   -1.0355 H   0  0  0  0  0  0  0  0  0  0  0  0
    1.0342    1.8738    0.5220 H   0  0  0  0  0  0  0  0  0  0  0  0
    0.1378    1.7658   -1.1248 H   0  0  0  0  0  0  0  0  0  0  0  0
   -1.4757    1.8555    1.1757 H   0  0  0  0  0  0  0  0  0  0  0  0
   -2.7093   -0.1333   -0.1205 H   0  0  0  0  0  0  0  0  0  0  0  0
   -1.8621    0.9407   -1.3675 H   0  0  0  0  0  0  0  0  0  0  0  0
   -1.0572   -1.6646   -0.2928 H   0  0  0  0  0  0  0  0  0  0  0  0
   -1.0696   -1.5588   -2.4869 H   0  0  0  0  0  0  0  0  0  0  0  0
   -0.7495   -0.8483    1.6962 H   0  0  0  0  0  0  0  0  0  0  0  0
    0.5239    0.4854    2.0466 H   0  0  0  0  0  0  0  0  0  0  0  0
  1  2  1  0
  2  3  1  0
  3  4  1  0
  4  5  1  0
  5  6  1  0
  6  7  1  0
  7  8  1  0
  5  9  1  0
  7  3  1  0
  9  3  1  0
  1 10  1  0
  2 11  1  0
  2 12  1  0
  4 13  1  0
  4 14  1  0
  5 15  1  0
  6 16  1  0
  6 17  1  0
  7 18  1  0
  8 19  1  0
  9 20  1  0
  9 21  1  0
M  END
