
     RDKit          3D

 21 21  0  0  0  0  0  0  0  0999 V2000
    3.1500    0.9426   -0.5620 O   0  0  0  0  0  0  0  0  0  0  0  0
    2.6612   -0.3576   -0.3602 C   0  0  0  0  0  0  0  0  0  0  0  0
    1.2294   -0.3398    0.0425 C   0  0  0  0  0  0  0  0  0  0  0  0
    0.7630   -0.8288    1.1767 C   0  0  0  0  0  0  0  0  0  0  0  0
   -0.7024   -0.6662    1.2962 C   0  0  0  0  0  0  0  0  0  0  0  0
   -1.1591   -0.2362   -0.0864 C   0  0  0  0  0  0  0  0  0  0  0  0
   -2.1903    0.8759    0.0055 C   0  0  0  0  0  0  0  0  0  0  0  0
   -3.2886    0.4307    0.7171 O   0  0  0  0  0  0  0  0  0  0  0  0
    0.0959    0.2226   -0.7495 C   0  0  0  0  0  0  0  0  0  0  0  0
    3.8937    1.1630    0.0473 H   0  0  0  0  0  0  0  0  0  0  0  0
    3.2706   -0.8345    0.4239 H   0  0  0  0  0  0  0  0  0  0  0  0
    2.8039   -0.8786   -1.3406 H   0  0  0  0  0  0  0  0  0  0  0  0
    1.3707   -1.2974    1.9401 H   0  0  0  0  0  0  0  0  0  0  0  0
   -0.9632    0.0924    2.0577 H   0  0  0  0  0  0  0  0  0  0  0  0
   -1.1321   -1.6648    1.5679 H   0  0  0  0  0  0  0  0  0  0  0  0
   -1.6305   -1.1070   -0.5828 H   0  0  0  0  0  0  0  0  0  0  0  0
   -2.5260    1.0980   -1.0290 H   0  0  0  0  0  0  0  0  0  0  0  0
   -1.7874    1.7755    0.4779 H   0  0  0  0  0  0  0  0  0  0  0  0
   -4.1471    0.5897    0.2289 H   0  0  0  0  0  0  0  0  0  0  0  0
    0.1449    1.3111   -0.8551 H   0  0  0  0  0  0  0  0  0  0  0  0
    0.1435   -0.2904   -1.7525 H   0  0  0  0  0  0  0  0  0  0  0  0
  1  2  1  0
  2  3  1  0
  3  4  2  0
  4  5  1  0
  5  6  1  0
  6  7  1  0
  7  8  1  0
  6  9  1  0
  9  3  1  0
  1 10  1  0
  2 11  1  0
  2 12  1  0
  4 13  1  0
  5 14  1  0
  5 15  1  0
  6 16  1  0
  7 17  1  0
  7 18  1  0
  8 19  1  0
  9 20  1  0
  9 21  1  0
M  END
