
     RDKit          3D

 21 22  0  0  0  0  0  0  0  0999 V2000
    2.4771    0.9979   -0.4485 O   0  0  0  0  0  0  0  0  0  0  0  0
    1.8333   -0.2389   -0.5004 C   0  0  0  0  0  0  0  0  0  0  0  0
    0.8432   -0.3337    0.5997 C   0  0  0  0  0  0  0  0  0  0  0  0
    0.1419   -1.5109    0.6540 O   0  0  0  0  0  0  0  0  0  0  0  0
   -1.0263   -1.6458    0.0150 C   0  0  0  0  0  0  0  0  0  0  0  0
   -1.8915   -0.3974   -0.1305 C   0  0  0  0  0  0  0  0  0  0  0  0
   -0.9705    0.6551   -0.5502 C   0  0  0  0  0  0  0  0  0  0  0  0
   -0.5048    1.8742   -0.0173 C   0  0  0  0  0  0  0  0  0  0  0  0
   -0.1061    0.7735    0.7600 C   0  0  0  0  0  0  0  0  0  0  0  0
    3.1441    0.9484    0.3044 H   0  0  0  0  0  0  0  0  0  0  0  0
    1.4740   -0.4534   -1.5034 H   0  0  0  0  0  0  0  0  0  0  0  0
    2.6422   -0.9997   -0.2898 H   0  0  0  0  0  0  0  0  0  0  0  0
    1.4719   -0.3526    1.5396 H   0  0  0  0  0  0  0  0  0  0  0  0
   -0.8154   -1.9661   -1.0497 H   0  0  0  0  0  0  0  0  0  0  0  0
   -1.5973   -2.4807    0.4614 H   0  0  0  0  0  0  0  0  0  0  0  0
   -2.3586   -0.2466    0.8777 H   0  0  0  0  0  0  0  0  0  0  0  0
   -2.7171   -0.6405   -0.8124 H   0  0  0  0  0  0  0  0  0  0  0  0
   -0.4181    0.3061   -1.4757 H   0  0  0  0  0  0  0  0  0  0  0  0
   -1.2499    2.6059    0.3835 H   0  0  0  0  0  0  0  0  0  0  0  0
    0.2971    2.4538   -0.5548 H   0  0  0  0  0  0  0  0  0  0  0  0
   -0.6692    0.6515    1.7373 H   0  0  0  0  0  0  0  0  0  0  0  0
  1  2  1  0
  2  3  1  0
  3  4  1  0
  4  5  1  0
  5  6  1  0
  6  7  1  0
  7  8  1  0
  8  9  1  0
  9  3  1  0
  9  7  1  0
  1 10  1  0
  2 11  1  0
  2 12  1  0
  3 13  1  0
  5 14  1  0
  5 15  1  0
  6 16  1  0
  6 17  1  0
  7 18  1  0
  8 19  1  0
  8 20  1  0
  9 21  1  0
M  END
