
     RDKit          3D

 21 22  0  0  0  0  0  0  0  0999 V2000
    3.0077   -0.7711   -0.2472 O   0  0  0  0  0  0  0  0  0  0  0  0
    2.0756    0.2240   -0.5713 C   0  0  0  0  0  0  0  0  0  0  0  0
    0.8207   -0.0311    0.2242 C   0  0  0  0  0  0  0  0  0  0  0  0
    0.2304   -1.3609   -0.0787 C   0  0  0  0  0  0  0  0  0  0  0  0
   -1.0712   -1.5064    0.1386 C   0  0  0  0  0  0  0  0  0  0  0  0
   -1.8804   -0.2447    0.1561 C   0  0  0  0  0  0  0  0  0  0  0  0
   -1.2945    0.6176   -0.9712 C   0  0  0  0  0  0  0  0  0  0  0  0
   -0.2197    1.0196    0.0476 C   0  0  0  0  0  0  0  0  0  0  0  0
   -1.2971    0.7683    1.1123 C   0  0  0  0  0  0  0  0  0  0  0  0
    3.3551   -0.5384    0.6478 H   0  0  0  0  0  0  0  0  0  0  0  0
    2.5347    1.1936   -0.2991 H   0  0  0  0  0  0  0  0  0  0  0  0
    1.8970    0.1271   -1.6623 H   0  0  0  0  0  0  0  0  0  0  0  0
    1.1018   -0.0568    1.3065 H   0  0  0  0  0  0  0  0  0  0  0  0
    0.8198   -2.1618   -0.4522 H   0  0  0  0  0  0  0  0  0  0  0  0
   -1.5230   -2.4897    0.2952 H   0  0  0  0  0  0  0  0  0  0  0  0
   -2.9559   -0.3604    0.1444 H   0  0  0  0  0  0  0  0  0  0  0  0
   -0.9260    0.0368   -1.8126 H   0  0  0  0  0  0  0  0  0  0  0  0
   -1.9559    1.4634   -1.1619 H   0  0  0  0  0  0  0  0  0  0  0  0
    0.1066    2.0578   -0.0315 H   0  0  0  0  0  0  0  0  0  0  0  0
   -1.9374    1.6471    1.1720 H   0  0  0  0  0  0  0  0  0  0  0  0
   -0.8882    0.3661    2.0432 H   0  0  0  0  0  0  0  0  0  0  0  0
  1  2  1  0
  2  3  1  0
  3  4  1  0
  4  5  2  0
  5  6  1  0
  6  7  1  0
  7  8  1  0
  8  9  1  0
  8  3  1  0
  9  6  1  0
  1 10  1  0
  2 11  1  0
  2 12  1  0
  3 13  1  0
  4 14  1  0
  5 15  1  0
  6 16  1  0
  7 17  1  0
  7 18  1  0
  8 19  1  0
  9 20  1  0
  9 21  1  0
M  END
