
     RDKit          3D

 21 21  0  0  0  0  0  0  0  0999 V2000
   -2.1052    0.3704    1.2974 O   0  0  0  0  0  0  0  0  0  0  0  0
   -2.2586   -0.0987   -0.0110 C   0  0  0  0  0  0  0  0  0  0  0  0
   -0.8695   -0.1459   -0.6687 C   0  0  0  0  0  0  0  0  0  0  0  0
   -0.3585    1.2312   -0.6412 C   0  0  0  0  0  0  0  0  0  0  0  0
    0.7613    1.7908   -0.2197 C   0  0  0  0  0  0  0  0  0  0  0  0
    1.8837    1.0836    0.3891 C   0  0  0  0  0  0  0  0  0  0  0  0
    2.1631   -0.2103    0.3621 C   0  0  0  0  0  0  0  0  0  0  0  0
    1.3568   -1.2593   -0.3240 C   0  0  0  0  0  0  0  0  0  0  0  0
   -0.0622   -1.1143    0.1447 C   0  0  0  0  0  0  0  0  0  0  0  0
   -1.9725   -0.4325    1.8628 H   0  0  0  0  0  0  0  0  0  0  0  0
   -2.7625   -1.0718   -0.0648 H   0  0  0  0  0  0  0  0  0  0  0  0
   -2.8100    0.6956   -0.5651 H   0  0  0  0  0  0  0  0  0  0  0  0
   -0.9401   -0.5225   -1.6925 H   0  0  0  0  0  0  0  0  0  0  0  0
   -1.0475    1.9544   -1.0573 H   0  0  0  0  0  0  0  0  0  0  0  0
    0.8637    2.8815   -0.3339 H   0  0  0  0  0  0  0  0  0  0  0  0
    2.5867    1.6811    0.9366 H   0  0  0  0  0  0  0  0  0  0  0  0
    3.0592   -0.5059    0.8911 H   0  0  0  0  0  0  0  0  0  0  0  0
    1.7824   -2.2507   -0.1455 H   0  0  0  0  0  0  0  0  0  0  0  0
    1.3448   -1.0838   -1.4347 H   0  0  0  0  0  0  0  0  0  0  0  0
   -0.5448   -2.1096    0.0434 H   0  0  0  0  0  0  0  0  0  0  0  0
   -0.0703   -0.8831    1.2312 H   0  0  0  0  0  0  0  0  0  0  0  0
  1  2  1  0
  2  3  1  0
  3  4  1  0
  4  5  2  0
  5  6  1  0
  6  7  2  0
  7  8  1  0
  8  9  1  0
  9  3  1  0
  1 10  1  0
  2 11  1  0
  2 12  1  0
  3 13  1  0
  4 14  1  0
  5 15  1  0
  6 16  1  0
  7 17  1  0
  8 18  1  0
  8 19  1  0
  9 20  1  0
  9 21  1  0
M  END
