
     RDKit          3D

 19 20  0  0  0  0  0  0  0  0999 V2000
   -2.4670    0.0209    0.9337 O   0  0  0  0  0  0  0  0  0  0  0  0
   -1.6037   -0.7797    0.1498 C   0  0  0  0  0  0  0  0  0  0  0  0
   -0.8297    0.1471   -0.7197 C   0  0  0  0  0  0  0  0  0  0  0  0
    0.0203    1.1743   -0.0672 C   0  0  0  0  0  0  0  0  0  0  0  0
    0.9172    0.4613    0.9253 C   0  0  0  0  0  0  0  0  0  0  0  0
    1.3091   -0.7186    0.0095 C   0  0  0  0  0  0  0  0  0  0  0  0
    2.6500   -0.6165   -0.3197 O   0  0  0  0  0  0  0  0  0  0  0  0
    0.5094   -0.2903   -1.1964 C   0  0  0  0  0  0  0  0  0  0  0  0
    0.8292    1.0906   -1.2291 O   0  0  0  0  0  0  0  0  0  0  0  0
   -2.9981    0.6297    0.3528 H   0  0  0  0  0  0  0  0  0  0  0  0
   -1.0144   -1.4038    0.8219 H   0  0  0  0  0  0  0  0  0  0  0  0
   -2.1889   -1.4598   -0.5060 H   0  0  0  0  0  0  0  0  0  0  0  0
   -1.4350    0.5598   -1.5194 H   0  0  0  0  0  0  0  0  0  0  0  0
   -0.3653    2.1351    0.1867 H   0  0  0  0  0  0  0  0  0  0  0  0
    1.7952    1.0902    1.0802 H   0  0  0  0  0  0  0  0  0  0  0  0
    0.4039    0.1254    1.8182 H   0  0  0  0  0  0  0  0  0  0  0  0
    1.0134   -1.6724    0.4330 H   0  0  0  0  0  0  0  0  0  0  0  0
    2.8379    0.3392   -0.5193 H   0  0  0  0  0  0  0  0  0  0  0  0
    0.6165   -0.8326   -2.1119 H   0  0  0  0  0  0  0  0  0  0  0  0
  1  2  1  0
  2  3  1  0
  3  4  1  0
  4  5  1  0
  5  6  1  0
  6  7  1  0
  6  8  1  0
  8  9  1  0
  8  3  1  0
  9  4  1  0
  1 10  1  0
  2 11  1  0
  2 12  1  0
  3 13  1  0
  4 14  1  0
  5 15  1  0
  5 16  1  0
  6 17  1  0
  7 18  1  0
  8 19  1  0
M  END
