
     RDKit          3D

 20 20  0  0  0  0  0  0  0  0999 V2000
    0.4032    2.2826    0.7134 O   0  0  0  0  0  0  0  0  0  0  0  0
   -0.1158    1.4781   -0.3184 C   0  0  0  0  0  0  0  0  0  0  0  0
    0.1757    0.0411   -0.0437 C   0  0  0  0  0  0  0  0  0  0  0  0
    1.6480   -0.2172    0.0492 C   0  0  0  0  0  0  0  0  0  0  0  0
    1.9653   -1.5416    0.3039 O   0  0  0  0  0  0  0  0  0  0  0  0
   -0.6289   -0.8765   -0.8994 C   0  0  0  0  0  0  0  0  0  0  0  0
   -1.7296   -0.7749    0.1444 C   0  0  0  0  0  0  0  0  0  0  0  0
   -0.6326   -0.4505    1.1419 C   0  0  0  0  0  0  0  0  0  0  0  0
    0.6000    3.1609    0.3082 H   0  0  0  0  0  0  0  0  0  0  0  0
    0.2984    1.8329   -1.2872 H   0  0  0  0  0  0  0  0  0  0  0  0
   -1.2048    1.7106   -0.3499 H   0  0  0  0  0  0  0  0  0  0  0  0
    2.0608    0.4794    0.8089 H   0  0  0  0  0  0  0  0  0  0  0  0
    2.1279    0.0495   -0.9156 H   0  0  0  0  0  0  0  0  0  0  0  0
    2.0743   -2.0914   -0.4899 H   0  0  0  0  0  0  0  0  0  0  0  0
   -0.3039   -1.9239   -0.9611 H   0  0  0  0  0  0  0  0  0  0  0  0
   -0.9222   -0.4811   -1.9007 H   0  0  0  0  0  0  0  0  0  0  0  0
   -2.4036    0.0684   -0.0784 H   0  0  0  0  0  0  0  0  0  0  0  0
   -2.2519   -1.7423    0.3377 H   0  0  0  0  0  0  0  0  0  0  0  0
   -0.2120   -1.3582    1.6188 H   0  0  0  0  0  0  0  0  0  0  0  0
   -0.9482    0.3541    1.8177 H   0  0  0  0  0  0  0  0  0  0  0  0
  1  2  1  0
  2  3  1  0
  3  4  1  0
  4  5  1  0
  3  6  1  0
  6  7  1  0
  7  8  1  0
  8  3  1  0
  1  9  1  0
  2 10  1  0
  2 11  1  0
  4 12  1  0
  4 13  1  0
  5 14  1  0
  6 15  1  0
  6 16  1  0
  7 17  1  0
  7 18  1  0
  8 19  1  0
  8 20  1  0
M  END
