
     RDKit          3D

 17 19  0  0  0  0  0  0  0  0999 V2000
    2.1569   -0.6052   -1.1380 O   0  0  0  0  0  0  0  0  0  0  0  0
    1.6991   -0.1740    0.1090 C   0  0  0  0  0  0  0  0  0  0  0  0
    0.2538   -0.1665    0.1390 C   0  0  0  0  0  0  0  0  0  0  0  0
   -0.6063    0.2258    1.2763 C   0  0  0  0  0  0  0  0  0  0  0  0
   -1.5751    1.1720    0.6070 C   0  0  0  0  0  0  0  0  0  0  0  0
   -1.5955    0.9301   -0.6896 C   0  0  0  0  0  0  0  0  0  0  0  0
   -0.6652   -0.1735   -1.0085 C   0  0  0  0  0  0  0  0  0  0  0  0
   -0.6535   -1.2996   -0.0034 C   0  0  0  0  0  0  0  0  0  0  0  0
   -1.1294   -1.0866    1.2651 O   0  0  0  0  0  0  0  0  0  0  0  0
    2.9981   -0.1375   -1.3431 H   0  0  0  0  0  0  0  0  0  0  0  0
    2.0917    0.8695    0.2664 H   0  0  0  0  0  0  0  0  0  0  0  0
    2.2210   -0.7947    0.8634 H   0  0  0  0  0  0  0  0  0  0  0  0
   -0.1733    0.5641    2.2039 H   0  0  0  0  0  0  0  0  0  0  0  0
   -2.1339    1.9111    1.1694 H   0  0  0  0  0  0  0  0  0  0  0  0
   -2.1962    1.4531   -1.4126 H   0  0  0  0  0  0  0  0  0  0  0  0
   -0.3658   -0.3799   -2.0314 H   0  0  0  0  0  0  0  0  0  0  0  0
   -0.3266   -2.3082   -0.3231 H   0  0  0  0  0  0  0  0  0  0  0  0
  1  2  1  0
  2  3  1  0
  3  4  1  0
  4  5  1  0
  5  6  2  0
  6  7  1  0
  7  8  1  0
  8  9  1  0
  7  3  1  0
  8  3  1  0
  9  4  1  0
  1 10  1  0
  2 11  1  0
  2 12  1  0
  4 13  1  0
  5 14  1  0
  6 15  1  0
  7 16  1  0
  8 17  1  0
M  END
