
     RDKit          3D

 19 20  0  0  0  0  0  0  0  0999 V2000
   -1.7726   -1.3079    1.1909 O   0  0  0  0  0  0  0  0  0  0  0  0
   -1.5952    0.0772    0.9978 C   0  0  0  0  0  0  0  0  0  0  0  0
   -0.7332    0.2423   -0.2126 C   0  0  0  0  0  0  0  0  0  0  0  0
   -0.4125    1.6577   -0.6069 C   0  0  0  0  0  0  0  0  0  0  0  0
    1.0533    1.2850   -0.5717 C   0  0  0  0  0  0  0  0  0  0  0  0
    1.5164    0.9150    0.6663 O   0  0  0  0  0  0  0  0  0  0  0  0
    0.7278    0.0065    0.0139 C   0  0  0  0  0  0  0  0  0  0  0  0
    1.3038   -1.3085   -0.4573 C   0  0  0  0  0  0  0  0  0  0  0  0
    1.8096   -2.0559    0.6306 O   0  0  0  0  0  0  0  0  0  0  0  0
   -2.2439   -1.6302    0.3755 H   0  0  0  0  0  0  0  0  0  0  0  0
   -2.5946    0.5072    0.8569 H   0  0  0  0  0  0  0  0  0  0  0  0
   -1.0907    0.5197    1.8748 H   0  0  0  0  0  0  0  0  0  0  0  0
   -1.0781   -0.3400   -1.0982 H   0  0  0  0  0  0  0  0  0  0  0  0
   -0.6078    2.4251    0.1808 H   0  0  0  0  0  0  0  0  0  0  0  0
   -0.7990    1.9495   -1.5879 H   0  0  0  0  0  0  0  0  0  0  0  0
    1.7033    1.4703   -1.4209 H   0  0  0  0  0  0  0  0  0  0  0  0
    0.4750   -1.9261   -0.8677 H   0  0  0  0  0  0  0  0  0  0  0  0
    2.0932   -1.1075   -1.2009 H   0  0  0  0  0  0  0  0  0  0  0  0
    2.2452   -1.3793    1.2369 H   0  0  0  0  0  0  0  0  0  0  0  0
  1  2  1  0
  2  3  1  0
  3  4  1  0
  4  5  1  0
  5  6  1  0
  6  7  1  0
  7  8  1  0
  8  9  1  0
  7  3  1  0
  7  5  1  0
  1 10  1  0
  2 11  1  0
  2 12  1  0
  3 13  1  0
  4 14  1  0
  4 15  1  0
  5 16  1  0
  8 17  1  0
  8 18  1  0
  9 19  1  0
M  END
