
     RDKit          3D

 19 19  0  0  0  0  0  0  0  0999 V2000
    2.6430    1.2320    0.3485 O   0  0  0  0  0  0  0  0  0  0  0  0
    1.8729    0.0923    0.2127 C   0  0  0  0  0  0  0  0  0  0  0  0
    0.5376    0.3544   -0.4384 C   0  0  0  0  0  0  0  0  0  0  0  0
   -0.2290   -0.9647   -0.5394 C   0  0  0  0  0  0  0  0  0  0  0  0
   -0.3381   -1.3556   -1.8594 O   0  0  0  0  0  0  0  0  0  0  0  0
   -1.4119   -0.2577    0.0515 C   0  0  0  0  0  0  0  0  0  0  0  0
   -1.9654   -0.9289    1.1264 O   0  0  0  0  0  0  0  0  0  0  0  0
   -0.5315    0.9259    0.4120 C   0  0  0  0  0  0  0  0  0  0  0  0
   -1.1328    2.0927   -0.1113 O   0  0  0  0  0  0  0  0  0  0  0  0
    3.3585    1.0038    1.0218 H   0  0  0  0  0  0  0  0  0  0  0  0
    2.4275   -0.5828   -0.5041 H   0  0  0  0  0  0  0  0  0  0  0  0
    1.7739   -0.4924    1.1501 H   0  0  0  0  0  0  0  0  0  0  0  0
    0.6421    0.8776   -1.3877 H   0  0  0  0  0  0  0  0  0  0  0  0
    0.1506   -1.7540    0.1642 H   0  0  0  0  0  0  0  0  0  0  0  0
   -0.3605   -2.3608   -1.8779 H   0  0  0  0  0  0  0  0  0  0  0  0
   -2.1765   -0.0634   -0.7131 H   0  0  0  0  0  0  0  0  0  0  0  0
   -2.9257   -1.0713    1.0761 H   0  0  0  0  0  0  0  0  0  0  0  0
   -0.3590    1.0175    1.4877 H   0  0  0  0  0  0  0  0  0  0  0  0
   -1.9756    2.2354    0.3803 H   0  0  0  0  0  0  0  0  0  0  0  0
  1  2  1  0
  2  3  1  0
  3  4  1  0
  4  5  1  0
  4  6  1  0
  6  7  1  0
  6  8  1  0
  8  9  1  0
  8  3  1  0
  1 10  1  0
  2 11  1  0
  2 12  1  0
  3 13  1  0
  4 14  1  0
  5 15  1  0
  6 16  1  0
  7 17  1  0
  8 18  1  0
  9 19  1  0
M  END
