
     RDKit          3D

 18 18  0  0  0  0  0  0  0  0999 V2000
   -2.5720   -0.7572    0.9275 O   0  0  0  0  0  0  0  0  0  0  0  0
   -2.0499   -0.0683   -0.1668 C   0  0  0  0  0  0  0  0  0  0  0  0
   -0.5613    0.0381    0.0446 C   0  0  0  0  0  0  0  0  0  0  0  0
    0.1261    0.7606   -1.0985 C   0  0  0  0  0  0  0  0  0  0  0  0
    1.5360    0.9192   -0.6727 C   0  0  0  0  0  0  0  0  0  0  0  0
    2.0371    0.0469    0.1804 C   0  0  0  0  0  0  0  0  0  0  0  0
    1.2496   -1.0968    0.7398 C   0  0  0  0  0  0  0  0  0  0  0  0
    0.0126   -1.2184    0.1316 O   0  0  0  0  0  0  0  0  0  0  0  0
   -2.5229   -0.1152    1.6944 H   0  0  0  0  0  0  0  0  0  0  0  0
   -2.2120   -0.7228   -1.0505 H   0  0  0  0  0  0  0  0  0  0  0  0
   -2.5539    0.8916   -0.2284 H   0  0  0  0  0  0  0  0  0  0  0  0
   -0.3805    0.6626    0.9537 H   0  0  0  0  0  0  0  0  0  0  0  0
    0.1368    0.1437   -2.0224 H   0  0  0  0  0  0  0  0  0  0  0  0
   -0.3584    1.7287   -1.3353 H   0  0  0  0  0  0  0  0  0  0  0  0
    2.1602    1.7140   -1.0317 H   0  0  0  0  0  0  0  0  0  0  0  0
    3.0787    0.1035    0.5407 H   0  0  0  0  0  0  0  0  0  0  0  0
    1.0796   -0.9842    1.8283 H   0  0  0  0  0  0  0  0  0  0  0  0
    1.7940   -2.0459    0.5652 H   0  0  0  0  0  0  0  0  0  0  0  0
  1  2  1  0
  2  3  1  0
  3  4  1  0
  4  5  1  0
  5  6  2  0
  6  7  1  0
  7  8  1  0
  8  3  1  0
  1  9  1  0
  2 10  1  0
  2 11  1  0
  3 12  1  0
  4 13  1  0
  4 14  1  0
  5 15  1  0
  6 16  1  0
  7 17  1  0
  7 18  1  0
M  END
