
     RDKit          3D

 17 19  0  0  0  0  0  0  0  0999 V2000
   -2.4453    0.4080   -1.1442 O   0  0  0  0  0  0  0  0  0  0  0  0
   -2.1078   -0.3568   -0.0276 C   0  0  0  0  0  0  0  0  0  0  0  0
   -0.7484   -0.0559    0.4974 C   0  0  0  0  0  0  0  0  0  0  0  0
    0.1857    0.8683   -0.2132 C   0  0  0  0  0  0  0  0  0  0  0  0
    1.3119   -0.0802   -0.0164 C   0  0  0  0  0  0  0  0  0  0  0  0
    2.6029    0.1592    0.3622 C   0  0  0  0  0  0  0  0  0  0  0  0
    2.2566   -0.3263   -0.9666 O   0  0  0  0  0  0  0  0  0  0  0  0
    0.3425   -1.1124    0.4483 C   0  0  0  0  0  0  0  0  0  0  0  0
   -0.3565   -0.7779    1.5989 O   0  0  0  0  0  0  0  0  0  0  0  0
   -2.5267    1.3531   -0.8533 H   0  0  0  0  0  0  0  0  0  0  0  0
   -2.3038   -1.4411   -0.1912 H   0  0  0  0  0  0  0  0  0  0  0  0
   -2.8465   -0.0535    0.7714 H   0  0  0  0  0  0  0  0  0  0  0  0
    0.3233    1.8697    0.2227 H   0  0  0  0  0  0  0  0  0  0  0  0
   -0.1187    0.9791   -1.2786 H   0  0  0  0  0  0  0  0  0  0  0  0
    3.0710    1.1692    0.3749 H   0  0  0  0  0  0  0  0  0  0  0  0
    3.2214   -0.5759    0.9443 H   0  0  0  0  0  0  0  0  0  0  0  0
    0.1383   -2.0266   -0.1013 H   0  0  0  0  0  0  0  0  0  0  0  0
  1  2  1  0
  2  3  1  0
  3  4  1  0
  4  5  1  0
  5  6  1  0
  6  7  1  0
  5  8  1  0
  8  9  1  0
  8  3  1  0
  9  3  1  0
  7  5  1  0
  1 10  1  0
  2 11  1  0
  2 12  1  0
  4 13  1  0
  4 14  1  0
  6 15  1  0
  6 16  1  0
  8 17  1  0
M  END
