
     RDKit          3D

 21 21  0  0  0  0  0  0  0  0999 V2000
   -2.5200    0.4553   -1.0546 O   0  0  0  0  0  0  0  0  0  0  0  0
   -1.4723   -0.4331   -0.8193 C   0  0  0  0  0  0  0  0  0  0  0  0
   -1.0179   -0.2984    0.6108 C   0  0  0  0  0  0  0  0  0  0  0  0
    0.0962   -1.2132    0.9379 C   0  0  0  0  0  0  0  0  0  0  0  0
    1.3562   -1.2578    0.5500 C   0  0  0  0  0  0  0  0  0  0  0  0
    2.0813   -0.3799   -0.3654 C   0  0  0  0  0  0  0  0  0  0  0  0
    1.4435    0.9058   -0.6816 C   0  0  0  0  0  0  0  0  0  0  0  0
    0.4010    1.5318   -0.1909 C   0  0  0  0  0  0  0  0  0  0  0  0
   -0.5142    1.1252    0.8925 C   0  0  0  0  0  0  0  0  0  0  0  0
   -3.3849    0.0932   -0.6989 H   0  0  0  0  0  0  0  0  0  0  0  0
   -1.8669   -1.4540   -0.9530 H   0  0  0  0  0  0  0  0  0  0  0  0
   -0.6827   -0.1945   -1.5463 H   0  0  0  0  0  0  0  0  0  0  0  0
   -1.8904   -0.4176    1.2809 H   0  0  0  0  0  0  0  0  0  0  0  0
   -0.1675   -2.0028    1.6307 H   0  0  0  0  0  0  0  0  0  0  0  0
    1.9817   -2.0738    0.9665 H   0  0  0  0  0  0  0  0  0  0  0  0
    2.1858   -0.9442   -1.3422 H   0  0  0  0  0  0  0  0  0  0  0  0
    3.1375   -0.2485   -0.0155 H   0  0  0  0  0  0  0  0  0  0  0  0
    1.9462    1.4380   -1.4879 H   0  0  0  0  0  0  0  0  0  0  0  0
    0.1287    2.5042   -0.6148 H   0  0  0  0  0  0  0  0  0  0  0  0
    0.0861    1.0400    1.8253 H   0  0  0  0  0  0  0  0  0  0  0  0
   -1.3272    1.8245    1.0756 H   0  0  0  0  0  0  0  0  0  0  0  0
  1  2  1  0
  2  3  1  0
  3  4  1  0
  4  5  2  0
  5  6  1  0
  6  7  1  0
  7  8  2  0
  8  9  1  0
  9  3  1  0
  1 10  1  0
  2 11  1  0
  2 12  1  0
  3 13  1  0
  4 14  1  0
  5 15  1  0
  6 16  1  0
  6 17  1  0
  7 18  1  0
  8 19  1  0
  9 20  1  0
  9 21  1  0
M  END
