
     RDKit          3D

 21 22  0  0  0  0  0  0  0  0999 V2000
   -2.5482   -0.4990    0.9812 O   0  0  0  0  0  0  0  0  0  0  0  0
   -1.2191   -0.3970    1.3240 C   0  0  0  0  0  0  0  0  0  0  0  0
   -0.3288   -0.0469    0.1533 C   0  0  0  0  0  0  0  0  0  0  0  0
    1.1327    0.0702    0.5063 C   0  0  0  0  0  0  0  0  0  0  0  0
    2.0607    0.4100   -0.5897 C   0  0  0  0  0  0  0  0  0  0  0  0
    2.0729   -0.9393    0.0168 C   0  0  0  0  0  0  0  0  0  0  0  0
   -0.7822   -0.3857   -1.2003 C   0  0  0  0  0  0  0  0  0  0  0  0
   -0.7918    1.0263   -0.8132 C   0  0  0  0  0  0  0  0  0  0  0  0
   -1.9264    1.6885   -0.3921 O   0  0  0  0  0  0  0  0  0  0  0  0
   -2.7883   -1.3750    0.5687 H   0  0  0  0  0  0  0  0  0  0  0  0
   -1.1493    0.3978    2.1169 H   0  0  0  0  0  0  0  0  0  0  0  0
   -0.8246   -1.3309    1.7746 H   0  0  0  0  0  0  0  0  0  0  0  0
    1.2987    0.5425    1.5027 H   0  0  0  0  0  0  0  0  0  0  0  0
    2.8771    1.1070   -0.3530 H   0  0  0  0  0  0  0  0  0  0  0  0
    1.6919    0.5006   -1.6258 H   0  0  0  0  0  0  0  0  0  0  0  0
    1.6936   -1.8267   -0.5172 H   0  0  0  0  0  0  0  0  0  0  0  0
    2.9661   -1.1669    0.6571 H   0  0  0  0  0  0  0  0  0  0  0  0
    0.0032   -0.7251   -1.9099 H   0  0  0  0  0  0  0  0  0  0  0  0
   -1.7269   -0.9756   -1.3186 H   0  0  0  0  0  0  0  0  0  0  0  0
   -0.0427    1.6843   -1.2951 H   0  0  0  0  0  0  0  0  0  0  0  0
   -1.6687    2.2409    0.4132 H   0  0  0  0  0  0  0  0  0  0  0  0
  1  2  1  0
  2  3  1  0
  3  4  1  0
  4  5  1  0
  5  6  1  0
  3  7  1  0
  7  8  1  0
  8  9  1  0
  8  3  1  0
  6  4  1  0
  1 10  1  0
  2 11  1  0
  2 12  1  0
  4 13  1  0
  5 14  1  0
  5 15  1  0
  6 16  1  0
  6 17  1  0
  7 18  1  0
  7 19  1  0
  8 20  1  0
  9 21  1  0
M  END
