
     RDKit          3D

 19 20  0  0  0  0  0  0  0  0999 V2000
   -2.5377   -1.1094   -0.3476 O   0  0  0  0  0  0  0  0  0  0  0  0
   -1.9950    0.1897   -0.3508 C   0  0  0  0  0  0  0  0  0  0  0  0
   -0.5038    0.0453   -0.3251 C   0  0  0  0  0  0  0  0  0  0  0  0
   -0.0336   -0.7043    0.9202 C   0  0  0  0  0  0  0  0  0  0  0  0
    1.3332   -1.1976    0.5004 C   0  0  0  0  0  0  0  0  0  0  0  0
    2.1346   -0.3226   -0.0939 C   0  0  0  0  0  0  0  0  0  0  0  0
    1.7229    1.0657   -0.3369 C   0  0  0  0  0  0  0  0  0  0  0  0
    1.0624    1.6951    0.7097 O   0  0  0  0  0  0  0  0  0  0  0  0
    0.2414    1.3266   -0.3523 C   0  0  0  0  0  0  0  0  0  0  0  0
   -2.9014   -1.3531    0.5428 H   0  0  0  0  0  0  0  0  0  0  0  0
   -2.2810    0.6472   -1.3018 H   0  0  0  0  0  0  0  0  0  0  0  0
   -2.3003    0.7667    0.5443 H   0  0  0  0  0  0  0  0  0  0  0  0
   -0.2137   -0.5426   -1.2206 H   0  0  0  0  0  0  0  0  0  0  0  0
    0.0432    0.0155    1.7595 H   0  0  0  0  0  0  0  0  0  0  0  0
   -0.7147   -1.5292    1.1450 H   0  0  0  0  0  0  0  0  0  0  0  0
    1.6413   -2.2145    0.6765 H   0  0  0  0  0  0  0  0  0  0  0  0
    3.1529   -0.6313   -0.4265 H   0  0  0  0  0  0  0  0  0  0  0  0
    2.2875    1.6698   -1.0731 H   0  0  0  0  0  0  0  0  0  0  0  0
   -0.1381    2.1831   -0.9697 H   0  0  0  0  0  0  0  0  0  0  0  0
  1  2  1  0
  2  3  1  0
  3  4  1  0
  4  5  1  0
  5  6  2  0
  6  7  1  0
  7  8  1  0
  8  9  1  0
  9  3  1  0
  9  7  1  0
  1 10  1  0
  2 11  1  0
  2 12  1  0
  3 13  1  0
  4 14  1  0
  4 15  1  0
  5 16  1  0
  6 17  1  0
  7 18  1  0
  9 19  1  0
M  END
