
     RDKit          3D

 21 22  0  0  0  0  0  0  0  0999 V2000
    3.1180   -0.5368   -0.1367 O   0  0  0  0  0  0  0  0  0  0  0  0
    2.1617   -0.0901    0.7967 C   0  0  0  0  0  0  0  0  0  0  0  0
    1.0192    0.5460    0.0007 C   0  0  0  0  0  0  0  0  0  0  0  0
    1.5244    1.6294   -0.7568 O   0  0  0  0  0  0  0  0  0  0  0  0
   -0.2423    0.7146    0.5929 C   0  0  0  0  0  0  0  0  0  0  0  0
   -1.6036    1.0087    0.1002 C   0  0  0  0  0  0  0  0  0  0  0  0
   -2.1449   -0.4236   -0.0818 C   0  0  0  0  0  0  0  0  0  0  0  0
   -0.8849   -1.3165   -0.0405 C   0  0  0  0  0  0  0  0  0  0  0  0
    0.0757   -0.3177   -0.5663 C   0  0  0  0  0  0  0  0  0  0  0  0
    2.6498   -0.7275   -1.0060 H   0  0  0  0  0  0  0  0  0  0  0  0
    1.8302   -0.9586    1.3753 H   0  0  0  0  0  0  0  0  0  0  0  0
    2.6722    0.6345    1.4379 H   0  0  0  0  0  0  0  0  0  0  0  0
    1.2988    1.4426   -1.7027 H   0  0  0  0  0  0  0  0  0  0  0  0
   -0.3338    0.2605    1.6290 H   0  0  0  0  0  0  0  0  0  0  0  0
   -2.2016    1.5353    0.8588 H   0  0  0  0  0  0  0  0  0  0  0  0
   -1.5808    1.5422   -0.8618 H   0  0  0  0  0  0  0  0  0  0  0  0
   -2.8544   -0.6921    0.6924 H   0  0  0  0  0  0  0  0  0  0  0  0
   -2.5115   -0.4982   -1.1167 H   0  0  0  0  0  0  0  0  0  0  0  0
   -1.0064   -2.2114   -0.6526 H   0  0  0  0  0  0  0  0  0  0  0  0
   -0.6921   -1.5344    1.0334 H   0  0  0  0  0  0  0  0  0  0  0  0
   -0.2938   -0.0070   -1.5953 H   0  0  0  0  0  0  0  0  0  0  0  0
  1  2  1  0
  2  3  1  0
  3  4  1  0
  3  5  1  0
  5  6  1  0
  6  7  1  0
  7  8  1  0
  8  9  1  0
  9  3  1  0
  9  5  1  0
  1 10  1  0
  2 11  1  0
  2 12  1  0
  4 13  1  0
  5 14  1  0
  6 15  1  0
  6 16  1  0
  7 17  1  0
  7 18  1  0
  8 19  1  0
  8 20  1  0
  9 21  1  0
M  END
