
     RDKit          3D

 19 19  0  0  0  0  0  0  0  0999 V2000
   -2.9303   -0.8453    0.3778 O   0  0  0  0  0  0  0  0  0  0  0  0
   -2.2560    0.2458   -0.1840 C   0  0  0  0  0  0  0  0  0  0  0  0
   -0.8001    0.1697    0.1695 C   0  0  0  0  0  0  0  0  0  0  0  0
   -0.0244    1.2716   -0.3780 C   0  0  0  0  0  0  0  0  0  0  0  0
    1.2814    1.4711   -0.4165 C   0  0  0  0  0  0  0  0  0  0  0  0
    2.3299    0.5692    0.1177 C   0  0  0  0  0  0  0  0  0  0  0  0
    2.2424   -0.7553    0.2684 C   0  0  0  0  0  0  0  0  0  0  0  0
    1.0455   -1.5575   -0.0855 C   0  0  0  0  0  0  0  0  0  0  0  0
   -0.2158   -1.1382   -0.1174 C   0  0  0  0  0  0  0  0  0  0  0  0
   -2.6529   -0.9321    1.3112 H   0  0  0  0  0  0  0  0  0  0  0  0
   -2.3664    0.3185   -1.2655 H   0  0  0  0  0  0  0  0  0  0  0  0
   -2.6700    1.1477    0.3127 H   0  0  0  0  0  0  0  0  0  0  0  0
   -0.7635    0.2826    1.2936 H   0  0  0  0  0  0  0  0  0  0  0  0
   -0.5698    2.1116   -0.8544 H   0  0  0  0  0  0  0  0  0  0  0  0
    1.6542    2.3905   -0.8829 H   0  0  0  0  0  0  0  0  0  0  0  0
    3.2544    1.0464    0.4110 H   0  0  0  0  0  0  0  0  0  0  0  0
    3.0986   -1.2665    0.6720 H   0  0  0  0  0  0  0  0  0  0  0  0
    1.2519   -2.5855   -0.3339 H   0  0  0  0  0  0  0  0  0  0  0  0
   -0.9091   -1.9442   -0.4157 H   0  0  0  0  0  0  0  0  0  0  0  0
  1  2  1  0
  2  3  1  0
  3  4  1  0
  4  5  2  0
  5  6  1  0
  6  7  2  0
  7  8  1  0
  8  9  2  0
  9  3  1  0
  1 10  1  0
  2 11  1  0
  2 12  1  0
  3 13  1  0
  4 14  1  0
  5 15  1  0
  6 16  1  0
  7 17  1  0
  8 18  1  0
  9 19  1  0
M  END
