
     RDKit          3D

 19 20  0  0  0  0  0  0  0  0999 V2000
   -2.7962   -0.1289   -0.9077 O   0  0  0  0  0  0  0  0  0  0  0  0
   -2.1484   -0.4003    0.3164 C   0  0  0  0  0  0  0  0  0  0  0  0
   -0.7735    0.1881    0.2151 C   0  0  0  0  0  0  0  0  0  0  0  0
   -0.0027    0.0076    1.3415 O   0  0  0  0  0  0  0  0  0  0  0  0
    1.1602    0.7808    1.1318 C   0  0  0  0  0  0  0  0  0  0  0  0
    2.0682   -0.0527    0.2558 C   0  0  0  0  0  0  0  0  0  0  0  0
    1.3282   -0.5440   -0.9437 C   0  0  0  0  0  0  0  0  0  0  0  0
    0.5503   -1.6761   -0.7186 O   0  0  0  0  0  0  0  0  0  0  0  0
   -0.0767   -0.4295   -0.9733 C   0  0  0  0  0  0  0  0  0  0  0  0
   -2.7895    0.8805   -0.9625 H   0  0  0  0  0  0  0  0  0  0  0  0
   -2.0672   -1.5183    0.3809 H   0  0  0  0  0  0  0  0  0  0  0  0
   -2.7296    0.0124    1.1507 H   0  0  0  0  0  0  0  0  0  0  0  0
   -0.8979    1.2889    0.0691 H   0  0  0  0  0  0  0  0  0  0  0  0
    1.6208    1.1034    2.0607 H   0  0  0  0  0  0  0  0  0  0  0  0
    0.8913    1.6871    0.5142 H   0  0  0  0  0  0  0  0  0  0  0  0
    2.9271    0.5939   -0.0156 H   0  0  0  0  0  0  0  0  0  0  0  0
    2.4645   -0.8780    0.8796 H   0  0  0  0  0  0  0  0  0  0  0  0
    1.9157   -0.4872   -1.8926 H   0  0  0  0  0  0  0  0  0  0  0  0
   -0.6446   -0.4279   -1.9021 H   0  0  0  0  0  0  0  0  0  0  0  0
  1  2  1  0
  2  3  1  0
  3  4  1  0
  4  5  1  0
  5  6  1  0
  6  7  1  0
  7  8  1  0
  8  9  1  0
  9  3  1  0
  9  7  1  0
  1 10  1  0
  2 11  1  0
  2 12  1  0
  3 13  1  0
  5 14  1  0
  5 15  1  0
  6 16  1  0
  6 17  1  0
  7 18  1  0
  9 19  1  0
M  END
