
     RDKit          3D

 18 19  0  0  0  0  0  0  0  0999 V2000
    2.5805    0.8568    0.6082 O   0  0  0  0  0  0  0  0  0  0  0  0
    1.7663   -0.2307    0.4481 C   0  0  0  0  0  0  0  0  0  0  0  0
    0.6728    0.0119   -0.5927 C   0  0  0  0  0  0  0  0  0  0  0  0
   -0.2429   -1.2158   -0.7706 C   0  0  0  0  0  0  0  0  0  0  0  0
   -0.6974    0.0240   -0.1764 C   0  0  0  0  0  0  0  0  0  0  0  0
   -1.2036    0.1814    1.2105 C   0  0  0  0  0  0  0  0  0  0  0  0
   -2.3521    0.7969    0.6571 O   0  0  0  0  0  0  0  0  0  0  0  0
   -1.7981    0.8740   -0.6434 C   0  0  0  0  0  0  0  0  0  0  0  0
    3.3421    0.7721   -0.0184 H   0  0  0  0  0  0  0  0  0  0  0  0
    2.3930   -1.1009    0.1498 H   0  0  0  0  0  0  0  0  0  0  0  0
    1.2592   -0.5459    1.4042 H   0  0  0  0  0  0  0  0  0  0  0  0
    1.0047    0.5272   -1.5192 H   0  0  0  0  0  0  0  0  0  0  0  0
   -0.0663   -2.0989   -0.1622 H   0  0  0  0  0  0  0  0  0  0  0  0
   -0.5680   -1.4375   -1.8210 H   0  0  0  0  0  0  0  0  0  0  0  0
   -1.3980   -0.7512    1.7491 H   0  0  0  0  0  0  0  0  0  0  0  0
   -0.6118    0.9410    1.7627 H   0  0  0  0  0  0  0  0  0  0  0  0
   -1.5989    1.9316   -0.8636 H   0  0  0  0  0  0  0  0  0  0  0  0
   -2.4814    0.4640   -1.4220 H   0  0  0  0  0  0  0  0  0  0  0  0
  1  2  1  0
  2  3  1  0
  3  4  1  0
  4  5  1  0
  5  6  1  0
  6  7  1  0
  7  8  1  0
  5  3  1  0
  8  5  1  0
  1  9  1  0
  2 10  1  0
  2 11  1  0
  3 12  1  0
  4 13  1  0
  4 14  1  0
  6 15  1  0
  6 16  1  0
  8 17  1  0
  8 18  1  0
M  END
