
     RDKit          3D

 19 20  0  0  0  0  0  0  0  0999 V2000
    2.1860    0.1793   -0.8648 O   0  0  0  0  0  0  0  0  0  0  0  0
    2.1831   -0.1778    0.4814 C   0  0  0  0  0  0  0  0  0  0  0  0
    0.8341   -0.0263    1.1083 C   0  0  0  0  0  0  0  0  0  0  0  0
   -0.2235   -0.8994    0.5226 C   0  0  0  0  0  0  0  0  0  0  0  0
   -1.3363    0.0775    0.2252 C   0  0  0  0  0  0  0  0  0  0  0  0
   -0.5693    1.3710    0.0676 C   0  0  0  0  0  0  0  0  0  0  0  0
    0.4255    1.2842    1.0185 O   0  0  0  0  0  0  0  0  0  0  0  0
   -2.4847   -0.2508   -0.4667 C   0  0  0  0  0  0  0  0  0  0  0  0
   -2.4887    0.0634    0.9643 O   0  0  0  0  0  0  0  0  0  0  0  0
    2.7354   -0.4827   -1.3553 H   0  0  0  0  0  0  0  0  0  0  0  0
    2.5826   -1.2175    0.6087 H   0  0  0  0  0  0  0  0  0  0  0  0
    2.8753    0.5148    1.0020 H   0  0  0  0  0  0  0  0  0  0  0  0
    0.9388   -0.2723    2.1891 H   0  0  0  0  0  0  0  0  0  0  0  0
   -0.5806   -1.6854    1.2020 H   0  0  0  0  0  0  0  0  0  0  0  0
    0.0538   -1.3829   -0.4278 H   0  0  0  0  0  0  0  0  0  0  0  0
   -0.0666    1.4338   -0.9296 H   0  0  0  0  0  0  0  0  0  0  0  0
   -1.1747    2.2649    0.2733 H   0  0  0  0  0  0  0  0  0  0  0  0
   -2.8362   -1.2842   -0.6186 H   0  0  0  0  0  0  0  0  0  0  0  0
   -3.0542    0.4903   -1.0816 H   0  0  0  0  0  0  0  0  0  0  0  0
  1  2  1  0
  2  3  1  0
  3  4  1  0
  4  5  1  0
  5  6  1  0
  6  7  1  0
  5  8  1  0
  8  9  1  0
  7  3  1  0
  9  5  1  0
  1 10  1  0
  2 11  1  0
  2 12  1  0
  3 13  1  0
  4 14  1  0
  4 15  1  0
  6 16  1  0
  6 17  1  0
  8 18  1  0
  8 19  1  0
M  END
