
     RDKit          3D

 23 23  0  0  0  0  0  0  0  0999 V2000
   -2.6346   -0.0275   -1.4325 O   0  0  0  0  0  0  0  0  0  0  0  0
   -2.2131    0.3483   -0.1927 C   0  0  0  0  0  0  0  0  0  0  0  0
   -0.7448    0.2213    0.0539 C   0  0  0  0  0  0  0  0  0  0  0  0
   -0.5098    0.6527    1.3761 O   0  0  0  0  0  0  0  0  0  0  0  0
    0.0817    1.1080   -0.8362 C   0  0  0  0  0  0  0  0  0  0  0  0
    1.4414    1.2135   -0.1642 C   0  0  0  0  0  0  0  0  0  0  0  0
    2.0637   -0.1152    0.0866 C   0  0  0  0  0  0  0  0  0  0  0  0
    1.2257   -1.3018   -0.2038 C   0  0  0  0  0  0  0  0  0  0  0  0
   -0.2359   -1.1767   -0.0591 C   0  0  0  0  0  0  0  0  0  0  0  0
   -2.6889   -0.9815   -1.6052 H   0  0  0  0  0  0  0  0  0  0  0  0
   -2.4740    1.4346   -0.0599 H   0  0  0  0  0  0  0  0  0  0  0  0
   -2.7928   -0.1956    0.5813 H   0  0  0  0  0  0  0  0  0  0  0  0
   -0.8510   -0.0903    1.9545 H   0  0  0  0  0  0  0  0  0  0  0  0
   -0.3638    2.0991   -0.8551 H   0  0  0  0  0  0  0  0  0  0  0  0
    0.2087    0.6869   -1.8524 H   0  0  0  0  0  0  0  0  0  0  0  0
    1.2529    1.7727    0.7985 H   0  0  0  0  0  0  0  0  0  0  0  0
    2.0815    1.8998   -0.7668 H   0  0  0  0  0  0  0  0  0  0  0  0
    3.0002   -0.1552   -0.5332 H   0  0  0  0  0  0  0  0  0  0  0  0
    2.4361   -0.1202    1.1440 H   0  0  0  0  0  0  0  0  0  0  0  0
    1.5703   -2.1210    0.4981 H   0  0  0  0  0  0  0  0  0  0  0  0
    1.5112   -1.7037   -1.2178 H   0  0  0  0  0  0  0  0  0  0  0  0
   -0.6404   -1.7301    0.8421 H   0  0  0  0  0  0  0  0  0  0  0  0
   -0.7241   -1.7180   -0.9246 H   0  0  0  0  0  0  0  0  0  0  0  0
  1  2  1  0
  2  3  1  0
  3  4  1  0
  3  5  1  0
  5  6  1  0
  6  7  1  0
  7  8  1  0
  8  9  1  0
  9  3  1  0
  1 10  1  0
  2 11  1  0
  2 12  1  0
  4 13  1  0
  5 14  1  0
  5 15  1  0
  6 16  1  0
  6 17  1  0
  7 18  1  0
  7 19  1  0
  8 20  1  0
  8 21  1  0
  9 22  1  0
  9 23  1  0
M  END
