
     RDKit          3D

 19 20  0  0  0  0  0  0  0  0999 V2000
   -2.7486    0.9793    0.1305 O   0  0  0  0  0  0  0  0  0  0  0  0
   -2.3210   -0.2937    0.4022 C   0  0  0  0  0  0  0  0  0  0  0  0
   -0.8451   -0.4683    0.3277 C   0  0  0  0  0  0  0  0  0  0  0  0
   -0.0974    0.3227    1.2043 O   0  0  0  0  0  0  0  0  0  0  0  0
    0.8700    0.3538    0.2468 C   0  0  0  0  0  0  0  0  0  0  0  0
    2.1233    1.0158    0.2700 C   0  0  0  0  0  0  0  0  0  0  0  0
    2.0368   -0.5383    0.2212 C   0  0  0  0  0  0  0  0  0  0  0  0
   -0.1419    0.2385   -0.8109 C   0  0  0  0  0  0  0  0  0  0  0  0
    0.2345   -0.6167   -1.8454 O   0  0  0  0  0  0  0  0  0  0  0  0
   -2.0639    1.6698    0.1401 H   0  0  0  0  0  0  0  0  0  0  0  0
   -2.6223   -0.5179    1.4677 H   0  0  0  0  0  0  0  0  0  0  0  0
   -2.7961   -1.0520   -0.2411 H   0  0  0  0  0  0  0  0  0  0  0  0
   -0.5234   -1.5062    0.3967 H   0  0  0  0  0  0  0  0  0  0  0  0
    2.5235    1.3969    1.2413 H   0  0  0  0  0  0  0  0  0  0  0  0
    2.5724    1.4900   -0.6373 H   0  0  0  0  0  0  0  0  0  0  0  0
    2.3107   -1.0073   -0.7506 H   0  0  0  0  0  0  0  0  0  0  0  0
    2.2610   -1.0743    1.1579 H   0  0  0  0  0  0  0  0  0  0  0  0
   -0.6171    1.1364   -1.1977 H   0  0  0  0  0  0  0  0  0  0  0  0
   -0.1554   -1.5285   -1.7233 H   0  0  0  0  0  0  0  0  0  0  0  0
  1  2  1  0
  2  3  1  0
  3  4  1  0
  4  5  1  0
  5  6  1  0
  6  7  1  0
  5  8  1  0
  8  9  1  0
  8  3  1  0
  7  5  1  0
  1 10  1  0
  2 11  1  0
  2 12  1  0
  3 13  1  0
  6 14  1  0
  6 15  1  0
  7 16  1  0
  7 17  1  0
  8 18  1  0
  9 19  1  0
M  END
