
     RDKit          3D

 19 20  0  0  0  0  0  0  0  0999 V2000
   -2.4532    1.6287   -0.2309 O   0  0  0  0  0  0  0  0  0  0  0  0
   -1.9400    0.3754    0.0037 C   0  0  0  0  0  0  0  0  0  0  0  0
   -0.6613    0.1535   -0.7248 C   0  0  0  0  0  0  0  0  0  0  0  0
   -0.1128   -1.2628   -0.4393 C   0  0  0  0  0  0  0  0  0  0  0  0
    1.1533   -0.5950   -0.9133 C   0  0  0  0  0  0  0  0  0  0  0  0
    1.9501    0.3952   -0.2884 C   0  0  0  0  0  0  0  0  0  0  0  0
    2.9437   -0.0856    0.6053 O   0  0  0  0  0  0  0  0  0  0  0  0
    0.5760    0.5208    0.0580 C   0  0  0  0  0  0  0  0  0  0  0  0
    0.3491    0.0826    1.3922 O   0  0  0  0  0  0  0  0  0  0  0  0
   -3.3772    1.6401    0.1605 H   0  0  0  0  0  0  0  0  0  0  0  0
   -2.6609   -0.4231   -0.2707 H   0  0  0  0  0  0  0  0  0  0  0  0
   -1.7672    0.2858    1.0994 H   0  0  0  0  0  0  0  0  0  0  0  0
   -0.6202    0.4264   -1.7717 H   0  0  0  0  0  0  0  0  0  0  0  0
   -0.4896   -2.0341   -1.1139 H   0  0  0  0  0  0  0  0  0  0  0  0
   -0.1881   -1.5632    0.5949 H   0  0  0  0  0  0  0  0  0  0  0  0
    0.9820   -0.3631   -2.0169 H   0  0  0  0  0  0  0  0  0  0  0  0
    2.3895    1.2813   -0.8440 H   0  0  0  0  0  0  0  0  0  0  0  0
    2.9455   -1.0620    0.6546 H   0  0  0  0  0  0  0  0  0  0  0  0
    0.9814    0.5993    1.9643 H   0  0  0  0  0  0  0  0  0  0  0  0
  1  2  1  0
  2  3  1  0
  3  4  1  0
  4  5  1  0
  5  6  1  0
  6  7  1  0
  6  8  1  0
  8  9  1  0
  8  3  1  0
  8  5  1  0
  1 10  1  0
  2 11  1  0
  2 12  1  0
  3 13  1  0
  4 14  1  0
  4 15  1  0
  5 16  1  0
  6 17  1  0
  7 18  1  0
  9 19  1  0
M  END
