
     RDKit          3D

 19 20  0  0  0  0  0  0  0  0999 V2000
    2.9568    0.2894    0.6756 O   0  0  0  0  0  0  0  0  0  0  0  0
    1.7208    0.9394    0.4564 C   0  0  0  0  0  0  0  0  0  0  0  0
    0.8239   -0.0732   -0.2051 C   0  0  0  0  0  0  0  0  0  0  0  0
    0.5908   -1.2698    0.5850 C   0  0  0  0  0  0  0  0  0  0  0  0
   -0.6432   -1.6941    0.3874 C   0  0  0  0  0  0  0  0  0  0  0  0
   -1.3518   -0.8192   -0.5537 C   0  0  0  0  0  0  0  0  0  0  0  0
   -1.7183    0.5248    0.0554 C   0  0  0  0  0  0  0  0  0  0  0  0
   -2.8069    1.0994   -0.5641 O   0  0  0  0  0  0  0  0  0  0  0  0
   -0.4620    0.4348   -0.6819 C   0  0  0  0  0  0  0  0  0  0  0  0
    3.3456    0.0849   -0.2201 H   0  0  0  0  0  0  0  0  0  0  0  0
    1.3187    1.3844    1.3595 H   0  0  0  0  0  0  0  0  0  0  0  0
    1.9258    1.7345   -0.2867 H   0  0  0  0  0  0  0  0  0  0  0  0
    1.4105   -0.4091   -1.1180 H   0  0  0  0  0  0  0  0  0  0  0  0
    1.2923   -1.7872    1.2598 H   0  0  0  0  0  0  0  0  0  0  0  0
   -1.0917   -2.5678    0.8479 H   0  0  0  0  0  0  0  0  0  0  0  0
   -1.8355   -1.1748   -1.4537 H   0  0  0  0  0  0  0  0  0  0  0  0
   -1.7304    0.6243    1.1598 H   0  0  0  0  0  0  0  0  0  0  0  0
   -3.3028    1.7349   -0.0352 H   0  0  0  0  0  0  0  0  0  0  0  0
   -0.4426    0.9444   -1.6686 H   0  0  0  0  0  0  0  0  0  0  0  0
  1  2  1  0
  2  3  1  0
  3  4  1  0
  4  5  2  0
  5  6  1  0
  6  7  1  0
  7  8  1  0
  7  9  1  0
  9  3  1  0
  9  6  1  0
  1 10  1  0
  2 11  1  0
  2 12  1  0
  3 13  1  0
  4 14  1  0
  5 15  1  0
  6 16  1  0
  7 17  1  0
  8 18  1  0
  9 19  1  0
M  END
