
     RDKit          3D

 19 19  0  0  0  0  0  0  0  0999 V2000
   -2.3366    0.9708   -1.2158 O   0  0  0  0  0  0  0  0  0  0  0  0
   -1.8987    0.4906   -0.0023 C   0  0  0  0  0  0  0  0  0  0  0  0
   -0.6673   -0.3901   -0.1201 C   0  0  0  0  0  0  0  0  0  0  0  0
   -0.8840   -1.4933   -0.9058 O   0  0  0  0  0  0  0  0  0  0  0  0
   -0.2604   -0.7752    1.2436 C   0  0  0  0  0  0  0  0  0  0  0  0
    1.0381   -0.6791    1.4008 C   0  0  0  0  0  0  0  0  0  0  0  0
    1.6494   -0.2129    0.1403 C   0  0  0  0  0  0  0  0  0  0  0  0
    2.7082    0.6622    0.3402 O   0  0  0  0  0  0  0  0  0  0  0  0
    0.5264    0.4027   -0.6295 C   0  0  0  0  0  0  0  0  0  0  0  0
   -2.1328    1.9352   -1.2998 H   0  0  0  0  0  0  0  0  0  0  0  0
   -2.6837   -0.1472    0.4694 H   0  0  0  0  0  0  0  0  0  0  0  0
   -1.7310    1.3284    0.7029 H   0  0  0  0  0  0  0  0  0  0  0  0
   -0.0627   -1.6427   -1.4660 H   0  0  0  0  0  0  0  0  0  0  0  0
   -0.9564   -1.1059    2.0434 H   0  0  0  0  0  0  0  0  0  0  0  0
    1.6019   -0.9148    2.3486 H   0  0  0  0  0  0  0  0  0  0  0  0
    2.0516   -1.1074   -0.3798 H   0  0  0  0  0  0  0  0  0  0  0  0
    2.9243    1.0436   -0.5651 H   0  0  0  0  0  0  0  0  0  0  0  0
    0.6661    0.1662   -1.6981 H   0  0  0  0  0  0  0  0  0  0  0  0
    0.4474    1.4688   -0.4069 H   0  0  0  0  0  0  0  0  0  0  0  0
  1  2  1  0
  2  3  1  0
  3  4  1  0
  3  5  1  0
  5  6  2  0
  6  7  1  0
  7  8  1  0
  7  9  1  0
  9  3  1  0
  1 10  1  0
  2 11  1  0
  2 12  1  0
  4 13  1  0
  5 14  1  0
  6 15  1  0
  7 16  1  0
  8 17  1  0
  9 18  1  0
  9 19  1  0
M  END
