
     RDKit          3D

 17 19  0  0  0  0  0  0  0  0999 V2000
    2.5585   -0.2605    0.7581 O   0  0  0  0  0  0  0  0  0  0  0  0
    2.0430    0.5973   -0.1852 C   0  0  0  0  0  0  0  0  0  0  0  0
    0.5585    0.5659   -0.3035 C   0  0  0  0  0  0  0  0  0  0  0  0
   -0.0639   -0.7513   -0.6804 C   0  0  0  0  0  0  0  0  0  0  0  0
    0.3712   -1.1942    0.5699 O   0  0  0  0  0  0  0  0  0  0  0  0
   -0.2015    0.0334    0.8877 C   0  0  0  0  0  0  0  0  0  0  0  0
   -1.2794   -0.2967   -0.0362 C   0  0  0  0  0  0  0  0  0  0  0  0
   -2.5802   -0.5755   -0.0006 C   0  0  0  0  0  0  0  0  0  0  0  0
   -2.0582    0.6655   -0.6600 O   0  0  0  0  0  0  0  0  0  0  0  0
    2.2106    0.0133    1.6623 H   0  0  0  0  0  0  0  0  0  0  0  0
    2.4718    0.3159   -1.1908 H   0  0  0  0  0  0  0  0  0  0  0  0
    2.3450    1.6445    0.0230 H   0  0  0  0  0  0  0  0  0  0  0  0
    0.1570    1.4637   -0.7601 H   0  0  0  0  0  0  0  0  0  0  0  0
    0.0906   -1.2417   -1.5526 H   0  0  0  0  0  0  0  0  0  0  0  0
   -0.2184    0.4580    1.8034 H   0  0  0  0  0  0  0  0  0  0  0  0
   -3.2855   -0.2160    0.7832 H   0  0  0  0  0  0  0  0  0  0  0  0
   -3.1189   -1.2217   -0.7476 H   0  0  0  0  0  0  0  0  0  0  0  0
  1  2  1  0
  2  3  1  0
  3  4  1  0
  4  5  1  0
  5  6  1  0
  6  7  1  0
  7  8  1  0
  8  9  1  0
  6  3  1  0
  9  7  1  0
  7  4  1  0
  1 10  1  0
  2 11  1  0
  2 12  1  0
  3 13  1  0
  4 14  1  0
  6 15  1  0
  8 16  1  0
  8 17  1  0
M  END
