
     RDKit          3D

 19 20  0  0  0  0  0  0  0  0999 V2000
    1.9940    1.0342   -0.0942 O   0  0  0  0  0  0  0  0  0  0  0  0
    1.7508   -0.3012   -0.2026 C   0  0  0  0  0  0  0  0  0  0  0  0
    0.3388   -0.7082   -0.3329 C   0  0  0  0  0  0  0  0  0  0  0  0
   -0.5452   -0.2993    0.8375 C   0  0  0  0  0  0  0  0  0  0  0  0
   -1.8673   -0.7265    0.1802 C   0  0  0  0  0  0  0  0  0  0  0  0
   -1.7326   -0.2297   -1.1091 O   0  0  0  0  0  0  0  0  0  0  0  0
   -0.4458    0.1861   -1.3093 C   0  0  0  0  0  0  0  0  0  0  0  0
   -0.2822    1.4322   -0.6629 O   0  0  0  0  0  0  0  0  0  0  0  0
   -0.4969    1.1925    0.6941 C   0  0  0  0  0  0  0  0  0  0  0  0
    2.9087    1.1402    0.3128 H   0  0  0  0  0  0  0  0  0  0  0  0
    2.3285   -0.7377   -1.0329 H   0  0  0  0  0  0  0  0  0  0  0  0
    2.1573   -0.7904    0.7292 H   0  0  0  0  0  0  0  0  0  0  0  0
    0.1998   -1.7348   -0.6628 H   0  0  0  0  0  0  0  0  0  0  0  0
   -0.3335   -0.7329    1.7722 H   0  0  0  0  0  0  0  0  0  0  0  0
   -1.8592   -1.8345    0.2073 H   0  0  0  0  0  0  0  0  0  0  0  0
   -2.7350   -0.3560    0.7181 H   0  0  0  0  0  0  0  0  0  0  0  0
   -0.0643    0.1685   -2.3052 H   0  0  0  0  0  0  0  0  0  0  0  0
   -1.5241    1.6054    0.9088 H   0  0  0  0  0  0  0  0  0  0  0  0
    0.2081    1.6921    1.3516 H   0  0  0  0  0  0  0  0  0  0  0  0
  1  2  1  0
  2  3  1  0
  3  4  1  0
  4  5  1  0
  5  6  1  0
  6  7  1  0
  7  8  1  0
  8  9  1  0
  7  3  1  0
  9  4  1  0
  1 10  1  0
  2 11  1  0
  2 12  1  0
  3 13  1  0
  4 14  1  0
  5 15  1  0
  5 16  1  0
  7 17  1  0
  9 18  1  0
  9 19  1  0
M  END
