
     RDKit          3D

 19 21  0  0  0  0  0  0  0  0999 V2000
    2.5256    0.3517    1.5036 O   0  0  0  0  0  0  0  0  0  0  0  0
    2.1649   -0.4539    0.4215 C   0  0  0  0  0  0  0  0  0  0  0  0
    0.7061   -0.4081    0.1697 C   0  0  0  0  0  0  0  0  0  0  0  0
   -0.0801   -1.4811    0.2157 C   0  0  0  0  0  0  0  0  0  0  0  0
   -1.4924   -1.0488   -0.0923 C   0  0  0  0  0  0  0  0  0  0  0  0
   -1.9324    0.1602    0.6532 C   0  0  0  0  0  0  0  0  0  0  0  0
   -0.9585    1.2297    1.0202 C   0  0  0  0  0  0  0  0  0  0  0  0
   -0.0803    0.8050   -0.1625 C   0  0  0  0  0  0  0  0  0  0  0  0
   -1.3182    0.2204   -0.7654 C   0  0  0  0  0  0  0  0  0  0  0  0
    3.5192    0.4334    1.4595 H   0  0  0  0  0  0  0  0  0  0  0  0
    2.5294   -1.4773    0.5937 H   0  0  0  0  0  0  0  0  0  0  0  0
    2.6735   -0.0222   -0.4677 H   0  0  0  0  0  0  0  0  0  0  0  0
    0.2400   -2.4913    0.4365 H   0  0  0  0  0  0  0  0  0  0  0  0
   -2.2180   -1.7615   -0.4515 H   0  0  0  0  0  0  0  0  0  0  0  0
   -3.0118    0.3084    0.7511 H   0  0  0  0  0  0  0  0  0  0  0  0
   -1.3635    2.2462    0.7870 H   0  0  0  0  0  0  0  0  0  0  0  0
   -0.4491    1.1291    1.9806 H   0  0  0  0  0  0  0  0  0  0  0  0
    0.4209    1.6059   -0.6907 H   0  0  0  0  0  0  0  0  0  0  0  0
   -1.8754    0.6542   -1.5637 H   0  0  0  0  0  0  0  0  0  0  0  0
  1  2  1  0
  2  3  1  0
  3  4  2  0
  4  5  1  0
  5  6  1  0
  6  7  1  0
  7  8  1  0
  8  9  1  0
  8  3  1  0
  9  5  1  0
  9  6  1  0
  1 10  1  0
  2 11  1  0
  2 12  1  0
  4 13  1  0
  5 14  1  0
  6 15  1  0
  7 16  1  0
  7 17  1  0
  8 18  1  0
  9 19  1  0
M  END
