
     RDKit          3D

 17 19  0  0  0  0  0  0  0  0999 V2000
   -2.3458   -1.5508   -0.2249 O   0  0  0  0  0  0  0  0  0  0  0  0
   -1.4387   -0.7317    0.4342 C   0  0  0  0  0  0  0  0  0  0  0  0
   -0.4931   -0.0219   -0.4803 C   0  0  0  0  0  0  0  0  0  0  0  0
   -0.9262    0.8400   -1.4525 O   0  0  0  0  0  0  0  0  0  0  0  0
   -0.5262    1.4919   -0.3230 C   0  0  0  0  0  0  0  0  0  0  0  0
    0.8687    1.3859    0.2248 C   0  0  0  0  0  0  0  0  0  0  0  0
    0.9732   -0.0164   -0.2306 C   0  0  0  0  0  0  0  0  0  0  0  0
    1.8376   -1.0161    0.0943 C   0  0  0  0  0  0  0  0  0  0  0  0
    1.8943   -0.3047   -1.1914 O   0  0  0  0  0  0  0  0  0  0  0  0
   -2.4495   -1.2682   -1.1471 H   0  0  0  0  0  0  0  0  0  0  0  0
   -2.0501   -0.0378    1.0661 H   0  0  0  0  0  0  0  0  0  0  0  0
   -0.8191   -1.3080    1.1699 H   0  0  0  0  0  0  0  0  0  0  0  0
   -1.3131    1.9549    0.2733 H   0  0  0  0  0  0  0  0  0  0  0  0
    1.5811    2.1248   -0.1693 H   0  0  0  0  0  0  0  0  0  0  0  0
    0.8148    1.4100    1.3517 H   0  0  0  0  0  0  0  0  0  0  0  0
    2.7503   -0.8716    0.7191 H   0  0  0  0  0  0  0  0  0  0  0  0
    1.6418   -2.0804   -0.1144 H   0  0  0  0  0  0  0  0  0  0  0  0
  1  2  1  0
  2  3  1  0
  3  4  1  0
  4  5  1  0
  5  6  1  0
  6  7  1  0
  7  8  1  0
  8  9  1  0
  5  3  1  0
  9  7  1  0
  7  3  1  0
  1 10  1  0
  2 11  1  0
  2 12  1  0
  5 13  1  0
  6 14  1  0
  6 15  1  0
  8 16  1  0
  8 17  1  0
M  END
