
     RDKit          3D

 19 20  0  0  0  0  0  0  0  0999 V2000
    1.1550    2.2266   -0.4674 O   0  0  0  0  0  0  0  0  0  0  0  0
    1.3597    0.8698   -0.7257 C   0  0  0  0  0  0  0  0  0  0  0  0
    0.2347    0.1112   -0.1182 C   0  0  0  0  0  0  0  0  0  0  0  0
   -1.1329    0.4582   -0.6302 C   0  0  0  0  0  0  0  0  0  0  0  0
   -1.9497   -0.7184   -0.1362 C   0  0  0  0  0  0  0  0  0  0  0  0
   -1.1119   -1.7825   -0.3185 O   0  0  0  0  0  0  0  0  0  0  0  0
    0.1899   -1.3671   -0.0702 C   0  0  0  0  0  0  0  0  0  0  0  0
    0.3328   -0.5482    1.1991 C   0  0  0  0  0  0  0  0  0  0  0  0
    1.5326   -0.7343    1.8365 O   0  0  0  0  0  0  0  0  0  0  0  0
    0.6829    2.2897    0.4009 H   0  0  0  0  0  0  0  0  0  0  0  0
    2.3519    0.5671   -0.2869 H   0  0  0  0  0  0  0  0  0  0  0  0
    1.4641    0.6797   -1.8208 H   0  0  0  0  0  0  0  0  0  0  0  0
   -1.5142    1.4268   -0.2885 H   0  0  0  0  0  0  0  0  0  0  0  0
   -1.1818    0.4205   -1.7515 H   0  0  0  0  0  0  0  0  0  0  0  0
   -2.3046   -0.5751    0.8995 H   0  0  0  0  0  0  0  0  0  0  0  0
   -2.8406   -0.8049   -0.7919 H   0  0  0  0  0  0  0  0  0  0  0  0
    1.0399   -1.8884   -0.4972 H   0  0  0  0  0  0  0  0  0  0  0  0
   -0.5367   -0.5401    1.9204 H   0  0  0  0  0  0  0  0  0  0  0  0
    2.2288   -0.0909    1.6469 H   0  0  0  0  0  0  0  0  0  0  0  0
  1  2  1  0
  2  3  1  0
  3  4  1  0
  4  5  1  0
  5  6  1  0
  6  7  1  0
  7  8  1  0
  8  9  1  0
  7  3  1  0
  8  3  1  0
  1 10  1  0
  2 11  1  0
  2 12  1  0
  4 13  1  0
  4 14  1  0
  5 15  1  0
  5 16  1  0
  7 17  1  0
  8 18  1  0
  9 19  1  0
M  END
