
     RDKit          3D

 18 19  0  0  0  0  0  0  0  0999 V2000
    2.6662    0.6905   -1.2328 O   0  0  0  0  0  0  0  0  0  0  0  0
    2.0870    0.3411   -0.0220 C   0  0  0  0  0  0  0  0  0  0  0  0
    0.8487   -0.5056   -0.2265 C   0  0  0  0  0  0  0  0  0  0  0  0
    0.1246   -0.9502    1.0647 C   0  0  0  0  0  0  0  0  0  0  0  0
   -0.4858   -0.0707    0.0861 C   0  0  0  0  0  0  0  0  0  0  0  0
   -1.7133   -0.3762   -0.6918 C   0  0  0  0  0  0  0  0  0  0  0  0
   -2.2279    0.7188    0.2216 C   0  0  0  0  0  0  0  0  0  0  0  0
   -0.9189    1.1970    0.3057 O   0  0  0  0  0  0  0  0  0  0  0  0
    2.8835    1.6603   -1.2093 H   0  0  0  0  0  0  0  0  0  0  0  0
    2.8554   -0.2842    0.5193 H   0  0  0  0  0  0  0  0  0  0  0  0
    1.9023    1.2122    0.6426 H   0  0  0  0  0  0  0  0  0  0  0  0
    0.9920   -1.2991   -0.9868 H   0  0  0  0  0  0  0  0  0  0  0  0
    0.5605   -0.5543    2.0157 H   0  0  0  0  0  0  0  0  0  0  0  0
   -0.2049   -2.0002    1.1136 H   0  0  0  0  0  0  0  0  0  0  0  0
   -1.6867   -0.0994   -1.7567 H   0  0  0  0  0  0  0  0  0  0  0  0
   -2.0868   -1.3923   -0.4649 H   0  0  0  0  0  0  0  0  0  0  0  0
   -2.6394    0.2980    1.1578 H   0  0  0  0  0  0  0  0  0  0  0  0
   -2.9564    1.4144   -0.2375 H   0  0  0  0  0  0  0  0  0  0  0  0
  1  2  1  0
  2  3  1  0
  3  4  1  0
  4  5  1  0
  5  6  1  0
  6  7  1  0
  7  8  1  0
  5  3  1  0
  8  5  1  0
  1  9  1  0
  2 10  1  0
  2 11  1  0
  3 12  1  0
  4 13  1  0
  4 14  1  0
  6 15  1  0
  6 16  1  0
  7 17  1  0
  7 18  1  0
M  END
