
     RDKit          3D

 21 21  0  0  0  0  0  0  0  0999 V2000
    3.0486    0.3041   -0.7403 O   0  0  0  0  0  0  0  0  0  0  0  0
    2.2120   -0.6958   -0.2992 C   0  0  0  0  0  0  0  0  0  0  0  0
    0.8802   -0.2089    0.1173 C   0  0  0  0  0  0  0  0  0  0  0  0
    0.5879    1.0894    0.0449 C   0  0  0  0  0  0  0  0  0  0  0  0
   -0.6399    1.8187    0.3906 C   0  0  0  0  0  0  0  0  0  0  0  0
   -1.8942    1.1686   -0.0351 C   0  0  0  0  0  0  0  0  0  0  0  0
   -2.1215   -0.1002   -0.2593 C   0  0  0  0  0  0  0  0  0  0  0  0
   -1.3180   -1.3019   -0.1935 C   0  0  0  0  0  0  0  0  0  0  0  0
   -0.0537   -1.2445    0.5946 C   0  0  0  0  0  0  0  0  0  0  0  0
    3.3358    0.9233   -0.0235 H   0  0  0  0  0  0  0  0  0  0  0  0
    2.0491   -1.3966   -1.1494 H   0  0  0  0  0  0  0  0  0  0  0  0
    2.6813   -1.3077    0.5047 H   0  0  0  0  0  0  0  0  0  0  0  0
    1.3888    1.7117   -0.3314 H   0  0  0  0  0  0  0  0  0  0  0  0
   -0.6311    2.8357   -0.1032 H   0  0  0  0  0  0  0  0  0  0  0  0
   -0.6709    2.0773    1.4916 H   0  0  0  0  0  0  0  0  0  0  0  0
   -2.7622    1.8511   -0.1860 H   0  0  0  0  0  0  0  0  0  0  0  0
   -3.1689   -0.2964   -0.5697 H   0  0  0  0  0  0  0  0  0  0  0  0
   -1.9482   -2.1012    0.3064 H   0  0  0  0  0  0  0  0  0  0  0  0
   -1.0868   -1.7546   -1.1866 H   0  0  0  0  0  0  0  0  0  0  0  0
    0.4153   -2.2562    0.5363 H   0  0  0  0  0  0  0  0  0  0  0  0
   -0.3036   -1.1159    1.6848 H   0  0  0  0  0  0  0  0  0  0  0  0
  1  2  1  0
  2  3  1  0
  3  4  2  0
  4  5  1  0
  5  6  1  0
  6  7  2  0
  7  8  1  0
  8  9  1  0
  9  3  1  0
  1 10  1  0
  2 11  1  0
  2 12  1  0
  4 13  1  0
  5 14  1  0
  5 15  1  0
  6 16  1  0
  7 17  1  0
  8 18  1  0
  8 19  1  0
  9 20  1  0
  9 21  1  0
M  END
