
     RDKit          3D

 21 22  0  0  0  0  0  0  0  0999 V2000
    2.0295    2.2302    0.4413 O   0  0  0  0  0  0  0  0  0  0  0  0
    1.9910    0.8632    0.6487 C   0  0  0  0  0  0  0  0  0  0  0  0
    0.7692    0.3187   -0.0348 C   0  0  0  0  0  0  0  0  0  0  0  0
   -0.0159    1.1752   -0.6785 C   0  0  0  0  0  0  0  0  0  0  0  0
   -1.2245    0.5429   -1.3369 C   0  0  0  0  0  0  0  0  0  0  0  0
   -1.8680   -0.1944   -0.1470 C   0  0  0  0  0  0  0  0  0  0  0  0
   -1.0354   -1.4129    0.0601 C   0  0  0  0  0  0  0  0  0  0  0  0
   -0.1560   -1.6200    1.2363 C   0  0  0  0  0  0  0  0  0  0  0  0
    0.4233   -1.1029   -0.0270 C   0  0  0  0  0  0  0  0  0  0  0  0
    2.1844    2.4398   -0.4968 H   0  0  0  0  0  0  0  0  0  0  0  0
    2.8955    0.3824    0.2697 H   0  0  0  0  0  0  0  0  0  0  0  0
    1.9369    0.6936    1.7462 H   0  0  0  0  0  0  0  0  0  0  0  0
    0.1687    2.2304   -0.7414 H   0  0  0  0  0  0  0  0  0  0  0  0
   -0.8521   -0.2130   -2.0529 H   0  0  0  0  0  0  0  0  0  0  0  0
   -1.8816    1.2960   -1.7586 H   0  0  0  0  0  0  0  0  0  0  0  0
   -2.9304   -0.4427   -0.3816 H   0  0  0  0  0  0  0  0  0  0  0  0
   -1.8681    0.5088    0.7100 H   0  0  0  0  0  0  0  0  0  0  0  0
   -1.4281   -2.3454   -0.4144 H   0  0  0  0  0  0  0  0  0  0  0  0
   -0.3187   -0.9494    2.0996 H   0  0  0  0  0  0  0  0  0  0  0  0
    0.1154   -2.6429    1.5092 H   0  0  0  0  0  0  0  0  0  0  0  0
    1.0650   -1.7576   -0.6516 H   0  0  0  0  0  0  0  0  0  0  0  0
  1  2  1  0
  2  3  1  0
  3  4  2  0
  4  5  1  0
  5  6  1  0
  6  7  1  0
  7  8  1  0
  8  9  1  0
  9  3  1  0
  9  7  1  0
  1 10  1  0
  2 11  1  0
  2 12  1  0
  4 13  1  0
  5 14  1  0
  5 15  1  0
  6 16  1  0
  6 17  1  0
  7 18  1  0
  8 19  1  0
  8 20  1  0
  9 21  1  0
M  END
