
     RDKit          3D

 19 21  0  0  0  0  0  0  0  0999 V2000
   -2.0043    1.2383    0.0705 O   0  0  0  0  0  0  0  0  0  0  0  0
   -2.1528   -0.0769   -0.3580 C   0  0  0  0  0  0  0  0  0  0  0  0
   -0.8649   -0.8521   -0.1845 C   0  0  0  0  0  0  0  0  0  0  0  0
   -0.4797   -0.8713    1.1780 O   0  0  0  0  0  0  0  0  0  0  0  0
    0.7767   -0.3178    1.1480 C   0  0  0  0  0  0  0  0  0  0  0  0
    1.4700   -0.7737   -0.1030 C   0  0  0  0  0  0  0  0  0  0  0  0
    2.1092    0.5817   -0.1453 C   0  0  0  0  0  0  0  0  0  0  0  0
    0.6890    0.8713    0.2323 C   0  0  0  0  0  0  0  0  0  0  0  0
    0.2940   -0.1491   -0.7890 C   0  0  0  0  0  0  0  0  0  0  0  0
   -2.4721    1.3509    0.9505 H   0  0  0  0  0  0  0  0  0  0  0  0
   -2.9722   -0.5862    0.1857 H   0  0  0  0  0  0  0  0  0  0  0  0
   -2.4107   -0.1324   -1.4343 H   0  0  0  0  0  0  0  0  0  0  0  0
   -1.0358   -1.8762   -0.5293 H   0  0  0  0  0  0  0  0  0  0  0  0
    1.3449   -0.2307    2.0540 H   0  0  0  0  0  0  0  0  0  0  0  0
    1.8900   -1.6622   -0.2816 H   0  0  0  0  0  0  0  0  0  0  0  0
    2.8829    0.7831    0.5998 H   0  0  0  0  0  0  0  0  0  0  0  0
    2.3374    0.8684   -1.1909 H   0  0  0  0  0  0  0  0  0  0  0  0
    0.2647    1.7557    0.4213 H   0  0  0  0  0  0  0  0  0  0  0  0
    0.3336    0.0792   -1.8240 H   0  0  0  0  0  0  0  0  0  0  0  0
  1  2  1  0
  2  3  1  0
  3  4  1  0
  4  5  1  0
  5  6  1  0
  6  7  1  0
  7  8  1  0
  8  9  1  0
  9  3  1  0
  8  5  1  0
  9  6  1  0
  1 10  1  0
  2 11  1  0
  2 12  1  0
  3 13  1  0
  5 14  1  0
  6 15  1  0
  7 16  1  0
  7 17  1  0
  8 18  1  0
  9 19  1  0
M  END
