
     RDKit          3D

 19 20  0  0  0  0  0  0  0  0999 V2000
    3.3402    0.6211    0.4325 O   0  0  0  0  0  0  0  0  0  0  0  0
    2.5227    0.0555   -0.5117 C   0  0  0  0  0  0  0  0  0  0  0  0
    1.2680   -0.5491    0.0666 C   0  0  0  0  0  0  0  0  0  0  0  0
    0.3532   -1.1508   -0.7608 O   0  0  0  0  0  0  0  0  0  0  0  0
   -0.0057    0.1219   -0.3527 C   0  0  0  0  0  0  0  0  0  0  0  0
   -1.1269    0.2898    0.6472 C   0  0  0  0  0  0  0  0  0  0  0  0
   -2.3318    0.9857    0.0514 C   0  0  0  0  0  0  0  0  0  0  0  0
   -3.0071   -0.2314   -0.0249 O   0  0  0  0  0  0  0  0  0  0  0  0
   -2.0058   -0.9270    0.6648 C   0  0  0  0  0  0  0  0  0  0  0  0
    4.1734    0.1290    0.5699 H   0  0  0  0  0  0  0  0  0  0  0  0
    2.2498    0.8163   -1.2623 H   0  0  0  0  0  0  0  0  0  0  0  0
    3.0270   -0.7772   -1.0761 H   0  0  0  0  0  0  0  0  0  0  0  0
    1.3117   -0.9990    1.0797 H   0  0  0  0  0  0  0  0  0  0  0  0
    0.0124    0.8780   -1.1415 H   0  0  0  0  0  0  0  0  0  0  0  0
   -0.8384    0.7078    1.6239 H   0  0  0  0  0  0  0  0  0  0  0  0
   -2.1359    1.3408   -0.9929 H   0  0  0  0  0  0  0  0  0  0  0  0
   -2.8597    1.6864    0.7044 H   0  0  0  0  0  0  0  0  0  0  0  0
   -1.6548   -1.7690    0.0250 H   0  0  0  0  0  0  0  0  0  0  0  0
   -2.2923   -1.2288    1.6805 H   0  0  0  0  0  0  0  0  0  0  0  0
  1  2  1  0
  2  3  1  0
  3  4  1  0
  4  5  1  0
  5  6  1  0
  6  7  1  0
  7  8  1  0
  8  9  1  0
  5  3  1  0
  9  6  1  0
  1 10  1  0
  2 11  1  0
  2 12  1  0
  3 13  1  0
  5 14  1  0
  6 15  1  0
  7 16  1  0
  7 17  1  0
  9 18  1  0
  9 19  1  0
M  END
