
     RDKit          3D

 21 22  0  0  0  0  0  0  0  0999 V2000
    2.3331    0.7160   -1.5946 O   0  0  0  0  0  0  0  0  0  0  0  0
    1.8706    0.5013   -0.3055 C   0  0  0  0  0  0  0  0  0  0  0  0
    1.0609   -0.7562   -0.3016 C   0  0  0  0  0  0  0  0  0  0  0  0
    1.8093   -1.8884   -0.7049 O   0  0  0  0  0  0  0  0  0  0  0  0
    0.1755   -0.9939    0.8522 C   0  0  0  0  0  0  0  0  0  0  0  0
   -0.3763   -0.8007   -0.5311 C   0  0  0  0  0  0  0  0  0  0  0  0
   -1.2437    0.3979   -0.7219 C   0  0  0  0  0  0  0  0  0  0  0  0
   -1.4133    1.4613    0.2568 C   0  0  0  0  0  0  0  0  0  0  0  0
   -2.4593    0.4125    0.2217 C   0  0  0  0  0  0  0  0  0  0  0  0
    3.3005    0.6399   -1.6758 H   0  0  0  0  0  0  0  0  0  0  0  0
    1.3091    1.3438    0.0905 H   0  0  0  0  0  0  0  0  0  0  0  0
    2.7745    0.3128    0.3288 H   0  0  0  0  0  0  0  0  0  0  0  0
    1.3167   -2.3181   -1.4446 H   0  0  0  0  0  0  0  0  0  0  0  0
    0.1091   -0.2020    1.6092 H   0  0  0  0  0  0  0  0  0  0  0  0
    0.0865   -2.0289    1.2679 H   0  0  0  0  0  0  0  0  0  0  0  0
   -0.7866   -1.7228   -1.0393 H   0  0  0  0  0  0  0  0  0  0  0  0
   -1.4251    0.6513   -1.7904 H   0  0  0  0  0  0  0  0  0  0  0  0
   -1.7473    2.4596   -0.1191 H   0  0  0  0  0  0  0  0  0  0  0  0
   -0.8126    1.5655    1.1865 H   0  0  0  0  0  0  0  0  0  0  0  0
   -2.4736   -0.2789    1.0683 H   0  0  0  0  0  0  0  0  0  0  0  0
   -3.4078    0.5278   -0.2974 H   0  0  0  0  0  0  0  0  0  0  0  0
  1  2  1  0
  2  3  1  0
  3  4  1  0
  3  5  1  0
  5  6  1  0
  6  7  1  0
  7  8  1  0
  8  9  1  0
  6  3  1  0
  9  7  1  0
  1 10  1  0
  2 11  1  0
  2 12  1  0
  4 13  1  0
  5 14  1  0
  5 15  1  0
  6 16  1  0
  7 17  1  0
  8 18  1  0
  8 19  1  0
  9 20  1  0
  9 21  1  0
M  END
