
     RDKit          3D

 19 20  0  0  0  0  0  0  0  0999 V2000
    2.5789   -1.1040    0.5154 O   0  0  0  0  0  0  0  0  0  0  0  0
    2.2116    0.1614    0.0558 C   0  0  0  0  0  0  0  0  0  0  0  0
    0.7229    0.2371   -0.0888 C   0  0  0  0  0  0  0  0  0  0  0  0
    0.0460    1.1404    0.6132 C   0  0  0  0  0  0  0  0  0  0  0  0
   -1.4420    1.1169    0.4540 C   0  0  0  0  0  0  0  0  0  0  0  0
   -1.8151    0.0250   -0.5171 C   0  0  0  0  0  0  0  0  0  0  0  0
   -1.1845   -1.2935   -0.2108 C   0  0  0  0  0  0  0  0  0  0  0  0
   -0.0462   -0.6469   -0.9792 C   0  0  0  0  0  0  0  0  0  0  0  0
   -0.9937    0.1380   -1.6346 O   0  0  0  0  0  0  0  0  0  0  0  0
    2.8723   -1.0677    1.4776 H   0  0  0  0  0  0  0  0  0  0  0  0
    2.6950    0.3757   -0.9197 H   0  0  0  0  0  0  0  0  0  0  0  0
    2.5506    0.9088    0.8018 H   0  0  0  0  0  0  0  0  0  0  0  0
    0.5116    1.8661    1.2717 H   0  0  0  0  0  0  0  0  0  0  0  0
   -1.9481    0.9969    1.4381 H   0  0  0  0  0  0  0  0  0  0  0  0
   -1.7966    2.0791    0.0316 H   0  0  0  0  0  0  0  0  0  0  0  0
   -2.8882    0.0302   -0.7382 H   0  0  0  0  0  0  0  0  0  0  0  0
   -0.9587   -1.5166    0.8361 H   0  0  0  0  0  0  0  0  0  0  0  0
   -1.6266   -2.0942   -0.8145 H   0  0  0  0  0  0  0  0  0  0  0  0
    0.5107   -1.3526   -1.5925 H   0  0  0  0  0  0  0  0  0  0  0  0
  1  2  1  0
  2  3  1  0
  3  4  2  0
  4  5  1  0
  5  6  1  0
  6  7  1  0
  7  8  1  0
  8  9  1  0
  8  3  1  0
  9  6  1  0
  1 10  1  0
  2 11  1  0
  2 12  1  0
  4 13  1  0
  5 14  1  0
  5 15  1  0
  6 16  1  0
  7 17  1  0
  7 18  1  0
  8 19  1  0
M  END
