
     RDKit          3D

 21 22  0  0  0  0  0  0  0  0999 V2000
    1.7692    1.9798    0.5551 O   0  0  0  0  0  0  0  0  0  0  0  0
    1.9317    0.6099    0.3952 C   0  0  0  0  0  0  0  0  0  0  0  0
    0.9257    0.0825   -0.6055 C   0  0  0  0  0  0  0  0  0  0  0  0
    1.0829   -1.4225   -0.7999 C   0  0  0  0  0  0  0  0  0  0  0  0
    0.0579   -1.6582    0.1473 O   0  0  0  0  0  0  0  0  0  0  0  0
   -0.3692   -0.3802   -0.0839 C   0  0  0  0  0  0  0  0  0  0  0  0
   -1.5885   -0.1972   -0.9320 C   0  0  0  0  0  0  0  0  0  0  0  0
   -2.3734   -0.0301    0.3733 C   0  0  0  0  0  0  0  0  0  0  0  0
   -1.0300    0.3639    1.0074 C   0  0  0  0  0  0  0  0  0  0  0  0
    2.1255    2.2410    1.4420 H   0  0  0  0  0  0  0  0  0  0  0  0
    2.9360    0.3642   -0.0112 H   0  0  0  0  0  0  0  0  0  0  0  0
    1.7914    0.0824    1.3485 H   0  0  0  0  0  0  0  0  0  0  0  0
    0.9145    0.6223   -1.5705 H   0  0  0  0  0  0  0  0  0  0  0  0
    0.6918   -1.7646   -1.7898 H   0  0  0  0  0  0  0  0  0  0  0  0
    2.0527   -1.8304   -0.5185 H   0  0  0  0  0  0  0  0  0  0  0  0
   -1.5094    0.7675   -1.5041 H   0  0  0  0  0  0  0  0  0  0  0  0
   -1.8629   -1.0742   -1.5225 H   0  0  0  0  0  0  0  0  0  0  0  0
   -2.6631   -1.0131    0.7718 H   0  0  0  0  0  0  0  0  0  0  0  0
   -3.1154    0.7653    0.3653 H   0  0  0  0  0  0  0  0  0  0  0  0
   -0.9229    0.0200    2.0335 H   0  0  0  0  0  0  0  0  0  0  0  0
   -0.8443    1.4716    0.8985 H   0  0  0  0  0  0  0  0  0  0  0  0
  1  2  1  0
  2  3  1  0
  3  4  1  0
  4  5  1  0
  5  6  1  0
  6  7  1  0
  7  8  1  0
  8  9  1  0
  6  3  1  0
  9  6  1  0
  1 10  1  0
  2 11  1  0
  2 12  1  0
  3 13  1  0
  4 14  1  0
  4 15  1  0
  7 16  1  0
  7 17  1  0
  8 18  1  0
  8 19  1  0
  9 20  1  0
  9 21  1  0
M  END
