
     RDKit          3D

 19 20  0  0  0  0  0  0  0  0999 V2000
   -2.5177   -0.1815   -0.5220 O   0  0  0  0  0  0  0  0  0  0  0  0
   -1.4239   -0.1316    0.3648 C   0  0  0  0  0  0  0  0  0  0  0  0
   -0.2192    0.2865   -0.4554 C   0  0  0  0  0  0  0  0  0  0  0  0
    0.4681   -0.8540   -1.0834 C   0  0  0  0  0  0  0  0  0  0  0  0
    1.2427   -1.4205    0.1516 C   0  0  0  0  0  0  0  0  0  0  0  0
    1.6839   -0.1021    0.7426 C   0  0  0  0  0  0  0  0  0  0  0  0
    0.8812    0.8788    0.4126 C   0  0  0  0  0  0  0  0  0  0  0  0
    0.0910    2.1546    0.1477 C   0  0  0  0  0  0  0  0  0  0  0  0
   -0.3351    1.5082   -1.0730 O   0  0  0  0  0  0  0  0  0  0  0  0
   -3.2397   -0.6811   -0.0507 H   0  0  0  0  0  0  0  0  0  0  0  0
   -1.6587    0.5451    1.1835 H   0  0  0  0  0  0  0  0  0  0  0  0
   -1.2474   -1.1550    0.7418 H   0  0  0  0  0  0  0  0  0  0  0  0
   -0.1887   -1.6570   -1.4677 H   0  0  0  0  0  0  0  0  0  0  0  0
    1.2025   -0.5908   -1.8636 H   0  0  0  0  0  0  0  0  0  0  0  0
    2.0920   -2.0169   -0.2216 H   0  0  0  0  0  0  0  0  0  0  0  0
    0.5955   -1.9788    0.8110 H   0  0  0  0  0  0  0  0  0  0  0  0
    2.5678    0.0590    1.3796 H   0  0  0  0  0  0  0  0  0  0  0  0
   -0.7313    2.3119    0.8633 H   0  0  0  0  0  0  0  0  0  0  0  0
    0.7369    3.0250   -0.0613 H   0  0  0  0  0  0  0  0  0  0  0  0
  1  2  1  0
  2  3  1  0
  3  4  1  0
  4  5  1  0
  5  6  1  0
  6  7  2  0
  7  8  1  0
  8  9  1  0
  7  3  1  0
  9  3  1  0
  1 10  1  0
  2 11  1  0
  2 12  1  0
  4 13  1  0
  4 14  1  0
  5 15  1  0
  5 16  1  0
  6 17  1  0
  8 18  1  0
  8 19  1  0
M  END
