
     RDKit          3D

 21 21  0  0  0  0  0  0  0  0999 V2000
    1.0735    1.8098   -1.2420 O   0  0  0  0  0  0  0  0  0  0  0  0
    0.3230    1.6265   -0.0723 C   0  0  0  0  0  0  0  0  0  0  0  0
    0.1189    0.1133    0.0538 C   0  0  0  0  0  0  0  0  0  0  0  0
    1.4881   -0.4896    0.1433 C   0  0  0  0  0  0  0  0  0  0  0  0
    1.4794   -1.8641    0.2626 O   0  0  0  0  0  0  0  0  0  0  0  0
   -0.7325   -0.1679    1.2588 C   0  0  0  0  0  0  0  0  0  0  0  0
   -2.0312   -0.6288    0.7174 C   0  0  0  0  0  0  0  0  0  0  0  0
   -1.9616   -0.7812   -0.5947 C   0  0  0  0  0  0  0  0  0  0  0  0
   -0.6206   -0.4482   -1.1177 C   0  0  0  0  0  0  0  0  0  0  0  0
    1.9792    2.1513   -1.0356 H   0  0  0  0  0  0  0  0  0  0  0  0
    0.8956    1.9774    0.7866 H   0  0  0  0  0  0  0  0  0  0  0  0
   -0.6608    2.1513   -0.1787 H   0  0  0  0  0  0  0  0  0  0  0  0
    2.0274   -0.0057    0.9760 H   0  0  0  0  0  0  0  0  0  0  0  0
    2.0194   -0.2457   -0.8019 H   0  0  0  0  0  0  0  0  0  0  0  0
    2.4241   -2.1499    0.3808 H   0  0  0  0  0  0  0  0  0  0  0  0
   -0.9280    0.7792    1.8196 H   0  0  0  0  0  0  0  0  0  0  0  0
   -0.2710   -0.8897    1.9477 H   0  0  0  0  0  0  0  0  0  0  0  0
   -2.9188   -0.8139    1.3313 H   0  0  0  0  0  0  0  0  0  0  0  0
   -2.8169   -1.1166   -1.1923 H   0  0  0  0  0  0  0  0  0  0  0  0
   -0.1326   -1.3517   -1.5587 H   0  0  0  0  0  0  0  0  0  0  0  0
   -0.7545    0.3441   -1.8840 H   0  0  0  0  0  0  0  0  0  0  0  0
  1  2  1  0
  2  3  1  0
  3  4  1  0
  4  5  1  0
  3  6  1  0
  6  7  1  0
  7  8  2  0
  8  9  1  0
  9  3  1  0
  1 10  1  0
  2 11  1  0
  2 12  1  0
  4 13  1  0
  4 14  1  0
  5 15  1  0
  6 16  1  0
  6 17  1  0
  7 18  1  0
  8 19  1  0
  9 20  1  0
  9 21  1  0
M  END
