
     RDKit          3D

 20 20  0  0  0  0  0  0  0  0999 V2000
    2.9645   -0.9419   -0.2927 O   0  0  0  0  0  0  0  0  0  0  0  0
    2.2541    0.2322   -0.2105 C   0  0  0  0  0  0  0  0  0  0  0  0
    0.8023    0.0201    0.0230 C   0  0  0  0  0  0  0  0  0  0  0  0
    0.2356   -1.1557    0.1415 C   0  0  0  0  0  0  0  0  0  0  0  0
   -1.2227   -1.3187    0.3748 C   0  0  0  0  0  0  0  0  0  0  0  0
   -2.0070   -0.2854   -0.3482 C   0  0  0  0  0  0  0  0  0  0  0  0
   -1.4166    1.0699   -0.4154 C   0  0  0  0  0  0  0  0  0  0  0  0
   -0.0453    1.2329    0.1261 C   0  0  0  0  0  0  0  0  0  0  0  0
    3.9327   -0.7021   -0.1548 H   0  0  0  0  0  0  0  0  0  0  0  0
    2.7067    0.8361    0.6148 H   0  0  0  0  0  0  0  0  0  0  0  0
    2.3933    0.8244   -1.1382 H   0  0  0  0  0  0  0  0  0  0  0  0
    0.8399   -2.0615    0.0692 H   0  0  0  0  0  0  0  0  0  0  0  0
   -1.4144   -1.2871    1.4764 H   0  0  0  0  0  0  0  0  0  0  0  0
   -1.5596   -2.3298    0.0120 H   0  0  0  0  0  0  0  0  0  0  0  0
   -2.1855   -0.6758   -1.3932 H   0  0  0  0  0  0  0  0  0  0  0  0
   -3.0433   -0.2804    0.1039 H   0  0  0  0  0  0  0  0  0  0  0  0
   -1.4613    1.4940   -1.4589 H   0  0  0  0  0  0  0  0  0  0  0  0
   -2.0909    1.7604    0.1750 H   0  0  0  0  0  0  0  0  0  0  0  0
   -0.1168    1.4775    1.2270 H   0  0  0  0  0  0  0  0  0  0  0  0
    0.4344    2.0910   -0.3995 H   0  0  0  0  0  0  0  0  0  0  0  0
  1  2  1  0
  2  3  1  0
  3  4  2  0
  4  5  1  0
  5  6  1  0
  6  7  1  0
  7  8  1  0
  8  3  1  0
  1  9  1  0
  2 10  1  0
  2 11  1  0
  4 12  1  0
  5 13  1  0
  5 14  1  0
  6 15  1  0
  6 16  1  0
  7 17  1  0
  7 18  1  0
  8 19  1  0
  8 20  1  0
M  END
