
     RDKit          3D

 18 18  0  0  0  0  0  0  0  0999 V2000
   -2.7844   -0.6036   -0.4259 O   0  0  0  0  0  0  0  0  0  0  0  0
   -1.9816    0.5022   -0.2299 C   0  0  0  0  0  0  0  0  0  0  0  0
   -0.5402    0.1914   -0.2227 C   0  0  0  0  0  0  0  0  0  0  0  0
   -0.0353   -1.0224   -0.3861 C   0  0  0  0  0  0  0  0  0  0  0  0
    1.4280   -1.3100   -0.3746 C   0  0  0  0  0  0  0  0  0  0  0  0
    2.2012   -0.2178   -0.0898 O   0  0  0  0  0  0  0  0  0  0  0  0
    1.5760    0.6633    0.7774 C   0  0  0  0  0  0  0  0  0  0  0  0
    0.4325    1.3030   -0.0194 C   0  0  0  0  0  0  0  0  0  0  0  0
   -2.6488   -1.2397    0.3465 H   0  0  0  0  0  0  0  0  0  0  0  0
   -2.2324    1.2791   -0.9738 H   0  0  0  0  0  0  0  0  0  0  0  0
   -2.2429    0.9070    0.7878 H   0  0  0  0  0  0  0  0  0  0  0  0
   -0.7126   -1.8354   -0.5335 H   0  0  0  0  0  0  0  0  0  0  0  0
    1.7375   -1.7266   -1.3587 H   0  0  0  0  0  0  0  0  0  0  0  0
    1.5807   -2.1033    0.3874 H   0  0  0  0  0  0  0  0  0  0  0  0
    1.1276    0.0419    1.5992 H   0  0  0  0  0  0  0  0  0  0  0  0
    2.2387    1.3964    1.2245 H   0  0  0  0  0  0  0  0  0  0  0  0
    0.8688    1.6216   -1.0110 H   0  0  0  0  0  0  0  0  0  0  0  0
   -0.0128    2.1528    0.5029 H   0  0  0  0  0  0  0  0  0  0  0  0
  1  2  1  0
  2  3  1  0
  3  4  2  0
  4  5  1  0
  5  6  1  0
  6  7  1  0
  7  8  1  0
  8  3  1  0
  1  9  1  0
  2 10  1  0
  2 11  1  0
  4 12  1  0
  5 13  1  0
  5 14  1  0
  7 15  1  0
  7 16  1  0
  8 17  1  0
  8 18  1  0
M  END
