
     RDKit          3D

 21 22  0  0  0  0  0  0  0  0999 V2000
    2.5900    0.0094    1.0072 O   0  0  0  0  0  0  0  0  0  0  0  0
    1.9669    0.3923   -0.1752 C   0  0  0  0  0  0  0  0  0  0  0  0
    0.5343    0.2496   -0.0611 C   0  0  0  0  0  0  0  0  0  0  0  0
   -0.2358    1.0008    0.9740 C   0  0  0  0  0  0  0  0  0  0  0  0
   -1.6545    0.5014    0.6267 C   0  0  0  0  0  0  0  0  0  0  0  0
   -1.3061   -0.4760   -0.4580 C   0  0  0  0  0  0  0  0  0  0  0  0
   -2.2262   -1.2249   -1.0412 O   0  0  0  0  0  0  0  0  0  0  0  0
   -0.0455   -1.1530    0.1020 C   0  0  0  0  0  0  0  0  0  0  0  0
   -0.3079    0.2927   -1.3358 C   0  0  0  0  0  0  0  0  0  0  0  0
    3.4655   -0.4350    0.7874 H   0  0  0  0  0  0  0  0  0  0  0  0
    2.3493   -0.1972   -1.0240 H   0  0  0  0  0  0  0  0  0  0  0  0
    2.2282    1.4546   -0.3410 H   0  0  0  0  0  0  0  0  0  0  0  0
   -0.1679    2.0836    0.9192 H   0  0  0  0  0  0  0  0  0  0  0  0
    0.0013    0.5701    1.9673 H   0  0  0  0  0  0  0  0  0  0  0  0
   -2.1372    0.0390    1.4880 H   0  0  0  0  0  0  0  0  0  0  0  0
   -2.2441    1.3181    0.1759 H   0  0  0  0  0  0  0  0  0  0  0  0
   -2.4554   -2.0214   -0.4788 H   0  0  0  0  0  0  0  0  0  0  0  0
   -0.1887   -1.3829    1.1554 H   0  0  0  0  0  0  0  0  0  0  0  0
    0.3877   -1.9124   -0.5513 H   0  0  0  0  0  0  0  0  0  0  0  0
    0.0905   -0.3866   -2.0911 H   0  0  0  0  0  0  0  0  0  0  0  0
   -0.6445    1.2779   -1.6458 H   0  0  0  0  0  0  0  0  0  0  0  0
  1  2  1  0
  2  3  1  0
  3  4  1  0
  4  5  1  0
  5  6  1  0
  6  7  1  0
  6  8  1  0
  6  9  1  0
  8  3  1  0
  9  3  1  0
  1 10  1  0
  2 11  1  0
  2 12  1  0
  4 13  1  0
  4 14  1  0
  5 15  1  0
  5 16  1  0
  7 17  1  0
  8 18  1  0
  8 19  1  0
  9 20  1  0
  9 21  1  0
M  END
