
     RDKit          3D

 21 22  0  0  0  0  0  0  0  0999 V2000
   -0.7698   -2.2563    1.0602 O   0  0  0  0  0  0  0  0  0  0  0  0
   -1.3931   -1.0380    0.9458 C   0  0  0  0  0  0  0  0  0  0  0  0
   -0.7682   -0.1642   -0.1499 C   0  0  0  0  0  0  0  0  0  0  0  0
   -1.5001    1.1602   -0.2229 C   0  0  0  0  0  0  0  0  0  0  0  0
   -0.1945    1.8842   -0.0359 C   0  0  0  0  0  0  0  0  0  0  0  0
    0.4671    0.5514    0.2246 C   0  0  0  0  0  0  0  0  0  0  0  0
    1.6967    0.3355   -0.5781 C   0  0  0  0  0  0  0  0  0  0  0  0
    2.2121   -1.0871   -0.6332 C   0  0  0  0  0  0  0  0  0  0  0  0
    1.7186   -0.3891   -1.7335 O   0  0  0  0  0  0  0  0  0  0  0  0
   -0.7559   -2.7837    0.2301 H   0  0  0  0  0  0  0  0  0  0  0  0
   -2.4700   -1.1684    0.7241 H   0  0  0  0  0  0  0  0  0  0  0  0
   -1.3052   -0.5234    1.9307 H   0  0  0  0  0  0  0  0  0  0  0  0
   -0.8125   -0.6820   -1.1139 H   0  0  0  0  0  0  0  0  0  0  0  0
   -2.1881    1.3391    0.6422 H   0  0  0  0  0  0  0  0  0  0  0  0
   -1.9800    1.3798   -1.1988 H   0  0  0  0  0  0  0  0  0  0  0  0
    0.1671    2.4107   -0.9497 H   0  0  0  0  0  0  0  0  0  0  0  0
   -0.1650    2.5821    0.8485 H   0  0  0  0  0  0  0  0  0  0  0  0
    0.6736    0.4433    1.3201 H   0  0  0  0  0  0  0  0  0  0  0  0
    2.4689    1.1395   -0.5077 H   0  0  0  0  0  0  0  0  0  0  0  0
    3.3009   -1.2131   -0.5052 H   0  0  0  0  0  0  0  0  0  0  0  0
    1.5972   -1.9203   -0.2975 H   0  0  0  0  0  0  0  0  0  0  0  0
  1  2  1  0
  2  3  1  0
  3  4  1  0
  4  5  1  0
  5  6  1  0
  6  7  1  0
  7  8  1  0
  8  9  1  0
  6  3  1  0
  9  7  1  0
  1 10  1  0
  2 11  1  0
  2 12  1  0
  3 13  1  0
  4 14  1  0
  4 15  1  0
  5 16  1  0
  5 17  1  0
  6 18  1  0
  7 19  1  0
  8 20  1  0
  8 21  1  0
M  END
