
     RDKit          3D

 21 21  0  0  0  0  0  0  0  0999 V2000
    2.9264    0.6030    0.0268 O   0  0  0  0  0  0  0  0  0  0  0  0
    2.2362   -0.5949   -0.2524 C   0  0  0  0  0  0  0  0  0  0  0  0
    0.7752   -0.2923   -0.1557 C   0  0  0  0  0  0  0  0  0  0  0  0
    0.4524    0.3134    1.1922 C   0  0  0  0  0  0  0  0  0  0  0  0
   -0.6841    1.2634    0.9709 C   0  0  0  0  0  0  0  0  0  0  0  0
   -1.6771    1.1432    0.0922 C   0  0  0  0  0  0  0  0  0  0  0  0
   -1.8675    0.0059   -0.8799 C   0  0  0  0  0  0  0  0  0  0  0  0
   -1.3216   -1.2636   -0.2938 C   0  0  0  0  0  0  0  0  0  0  0  0
    0.0255   -1.4221   -0.4174 O   0  0  0  0  0  0  0  0  0  0  0  0
    3.2587    1.0182   -0.8234 H   0  0  0  0  0  0  0  0  0  0  0  0
    2.4805   -0.8977   -1.2692 H   0  0  0  0  0  0  0  0  0  0  0  0
    2.5888   -1.3392    0.4784 H   0  0  0  0  0  0  0  0  0  0  0  0
    0.5357    0.4562   -0.9427 H   0  0  0  0  0  0  0  0  0  0  0  0
    1.3065    0.7801    1.6838 H   0  0  0  0  0  0  0  0  0  0  0  0
    0.0818   -0.5177    1.8364 H   0  0  0  0  0  0  0  0  0  0  0  0
   -0.6896    2.1435    1.6012 H   0  0  0  0  0  0  0  0  0  0  0  0
   -2.4286    1.9357    0.0644 H   0  0  0  0  0  0  0  0  0  0  0  0
   -2.9805   -0.1237   -0.9561 H   0  0  0  0  0  0  0  0  0  0  0  0
   -1.4935    0.2416   -1.8739 H   0  0  0  0  0  0  0  0  0  0  0  0
   -1.8201   -2.1198   -0.8347 H   0  0  0  0  0  0  0  0  0  0  0  0
   -1.7050   -1.3330    0.7528 H   0  0  0  0  0  0  0  0  0  0  0  0
  1  2  1  0
  2  3  1  0
  3  4  1  0
  4  5  1  0
  5  6  2  0
  6  7  1  0
  7  8  1  0
  8  9  1  0
  9  3  1  0
  1 10  1  0
  2 11  1  0
  2 12  1  0
  3 13  1  0
  4 14  1  0
  4 15  1  0
  5 16  1  0
  6 17  1  0
  7 18  1  0
  7 19  1  0
  8 20  1  0
  8 21  1  0
M  END
