
     RDKit          3D

 18 19  0  0  0  0  0  0  0  0999 V2000
    2.7972   -0.0998   -0.7609 O   0  0  0  0  0  0  0  0  0  0  0  0
    1.6071    0.5973   -0.6296 C   0  0  0  0  0  0  0  0  0  0  0  0
    0.4467   -0.3451   -0.4140 C   0  0  0  0  0  0  0  0  0  0  0  0
    0.5783   -1.2046    0.8303 C   0  0  0  0  0  0  0  0  0  0  0  0
   -0.0553   -0.1502    1.5307 O   0  0  0  0  0  0  0  0  0  0  0  0
   -0.6904    0.1636    0.3737 C   0  0  0  0  0  0  0  0  0  0  0  0
   -1.5049    1.3091    0.0971 C   0  0  0  0  0  0  0  0  0  0  0  0
   -2.1022   -0.1232    0.0868 C   0  0  0  0  0  0  0  0  0  0  0  0
    2.6147   -1.0512   -0.5701 H   0  0  0  0  0  0  0  0  0  0  0  0
    1.4278    1.1471   -1.5691 H   0  0  0  0  0  0  0  0  0  0  0  0
    1.6585    1.3003    0.2462 H   0  0  0  0  0  0  0  0  0  0  0  0
    0.1186   -0.8751   -1.3233 H   0  0  0  0  0  0  0  0  0  0  0  0
    1.5970   -1.3816    1.1843 H   0  0  0  0  0  0  0  0  0  0  0  0
   -0.0629   -2.1022    0.7125 H   0  0  0  0  0  0  0  0  0  0  0  0
   -1.4661    1.7723   -0.9315 H   0  0  0  0  0  0  0  0  0  0  0  0
   -1.8981    2.0041    0.8643 H   0  0  0  0  0  0  0  0  0  0  0  0
   -2.3318   -0.5608   -0.8985 H   0  0  0  0  0  0  0  0  0  0  0  0
   -2.7343   -0.4000    0.9416 H   0  0  0  0  0  0  0  0  0  0  0  0
  1  2  1  0
  2  3  1  0
  3  4  1  0
  4  5  1  0
  5  6  1  0
  6  7  1  0
  7  8  1  0
  6  3  1  0
  8  6  1  0
  1  9  1  0
  2 10  1  0
  2 11  1  0
  3 12  1  0
  4 13  1  0
  4 14  1  0
  7 15  1  0
  7 16  1  0
  8 17  1  0
  8 18  1  0
M  END
