
     RDKit          3D

 19 20  0  0  0  0  0  0  0  0999 V2000
    2.9998    0.9761   -0.7139 O   0  0  0  0  0  0  0  0  0  0  0  0
    2.4802   -0.2605   -0.4075 C   0  0  0  0  0  0  0  0  0  0  0  0
    1.0358   -0.2302   -0.1001 C   0  0  0  0  0  0  0  0  0  0  0  0
    0.2016    0.8042   -0.0821 C   0  0  0  0  0  0  0  0  0  0  0  0
   -1.1074    0.2380    0.2901 C   0  0  0  0  0  0  0  0  0  0  0  0
   -2.0324   -0.0165   -0.8935 C   0  0  0  0  0  0  0  0  0  0  0  0
   -2.3725    0.9138    0.2313 C   0  0  0  0  0  0  0  0  0  0  0  0
   -0.8006   -0.8853    1.0221 O   0  0  0  0  0  0  0  0  0  0  0  0
    0.2317   -1.4282    0.2584 C   0  0  0  0  0  0  0  0  0  0  0  0
    2.5232    1.7079   -0.2648 H   0  0  0  0  0  0  0  0  0  0  0  0
    2.6419   -1.0102   -1.2147 H   0  0  0  0  0  0  0  0  0  0  0  0
    3.0231   -0.6481    0.4781 H   0  0  0  0  0  0  0  0  0  0  0  0
    0.4867    1.8225   -0.3038 H   0  0  0  0  0  0  0  0  0  0  0  0
   -1.7675    0.4212   -1.8788 H   0  0  0  0  0  0  0  0  0  0  0  0
   -2.5654   -0.9864   -0.9433 H   0  0  0  0  0  0  0  0  0  0  0  0
   -3.1905    0.5797    0.8881 H   0  0  0  0  0  0  0  0  0  0  0  0
   -2.3792    2.0022   -0.0045 H   0  0  0  0  0  0  0  0  0  0  0  0
   -0.2302   -1.8214   -0.6672 H   0  0  0  0  0  0  0  0  0  0  0  0
    0.8215   -2.1788    0.8142 H   0  0  0  0  0  0  0  0  0  0  0  0
  1  2  1  0
  2  3  1  0
  3  4  2  0
  4  5  1  0
  5  6  1  0
  6  7  1  0
  5  8  1  0
  8  9  1  0
  9  3  1  0
  7  5  1  0
  1 10  1  0
  2 11  1  0
  2 12  1  0
  4 13  1  0
  6 14  1  0
  6 15  1  0
  7 16  1  0
  7 17  1  0
  9 18  1  0
  9 19  1  0
M  END
