
     RDKit          3D

 21 21  0  0  0  0  0  0  0  0999 V2000
    2.7595    1.4251   -0.0213 O   0  0  0  0  0  0  0  0  0  0  0  0
    2.2459    0.1528   -0.0683 C   0  0  0  0  0  0  0  0  0  0  0  0
    0.7209    0.1535    0.0115 C   0  0  0  0  0  0  0  0  0  0  0  0
    0.2326    0.7466    1.2869 C   0  0  0  0  0  0  0  0  0  0  0  0
   -1.0594    0.3723    1.5231 O   0  0  0  0  0  0  0  0  0  0  0  0
   -1.8882    0.4237    0.4200 C   0  0  0  0  0  0  0  0  0  0  0  0
   -1.9749   -0.8627   -0.3392 C   0  0  0  0  0  0  0  0  0  0  0  0
   -0.6912   -1.2762   -0.9903 C   0  0  0  0  0  0  0  0  0  0  0  0
    0.3272   -1.1819   -0.0455 O   0  0  0  0  0  0  0  0  0  0  0  0
    3.5029    1.5049   -0.6692 H   0  0  0  0  0  0  0  0  0  0  0  0
    2.4785   -0.3714   -1.0413 H   0  0  0  0  0  0  0  0  0  0  0  0
    2.6660   -0.4531    0.7393 H   0  0  0  0  0  0  0  0  0  0  0  0
    0.3123    0.7575   -0.8266 H   0  0  0  0  0  0  0  0  0  0  0  0
    0.3880    1.8567    1.3001 H   0  0  0  0  0  0  0  0  0  0  0  0
    0.8534    0.3619    2.1435 H   0  0  0  0  0  0  0  0  0  0  0  0
   -2.9204    0.6427    0.7904 H   0  0  0  0  0  0  0  0  0  0  0  0
   -1.6182    1.2423   -0.2917 H   0  0  0  0  0  0  0  0  0  0  0  0
   -2.8096   -0.7781   -1.0654 H   0  0  0  0  0  0  0  0  0  0  0  0
   -2.2619   -1.6879    0.3671 H   0  0  0  0  0  0  0  0  0  0  0  0
   -0.8151   -2.3345   -1.3182 H   0  0  0  0  0  0  0  0  0  0  0  0
   -0.4482   -0.6943   -1.9049 H   0  0  0  0  0  0  0  0  0  0  0  0
  1  2  1  0
  2  3  1  0
  3  4  1  0
  4  5  1  0
  5  6  1  0
  6  7  1  0
  7  8  1  0
  8  9  1  0
  9  3  1  0
  1 10  1  0
  2 11  1  0
  2 12  1  0
  3 13  1  0
  4 14  1  0
  4 15  1  0
  6 16  1  0
  6 17  1  0
  7 18  1  0
  7 19  1  0
  8 20  1  0
  8 21  1  0
M  END
