
     RDKit          3D

 19 21  0  0  0  0  0  0  0  0999 V2000
    2.8729   -0.4043   -0.7654 O   0  0  0  0  0  0  0  0  0  0  0  0
    1.6652   -0.8010   -0.1580 C   0  0  0  0  0  0  0  0  0  0  0  0
    0.6848    0.2876   -0.1993 C   0  0  0  0  0  0  0  0  0  0  0  0
    1.1923    1.4613    0.5089 O   0  0  0  0  0  0  0  0  0  0  0  0
    0.5880    1.5208   -0.7375 C   0  0  0  0  0  0  0  0  0  0  0  0
   -0.9467    1.5253   -0.6007 C   0  0  0  0  0  0  0  0  0  0  0  0
   -0.7757    0.1211   -0.0937 C   0  0  0  0  0  0  0  0  0  0  0  0
   -1.5254   -0.4799    0.9655 C   0  0  0  0  0  0  0  0  0  0  0  0
   -1.5481   -1.0121   -0.5024 C   0  0  0  0  0  0  0  0  0  0  0  0
    3.3916   -1.2567   -0.8672 H   0  0  0  0  0  0  0  0  0  0  0  0
    1.9462   -0.9813    0.9226 H   0  0  0  0  0  0  0  0  0  0  0  0
    1.3197   -1.7744   -0.5319 H   0  0  0  0  0  0  0  0  0  0  0  0
    1.0220    2.0706   -1.5633 H   0  0  0  0  0  0  0  0  0  0  0  0
   -1.4833    1.6444   -1.5451 H   0  0  0  0  0  0  0  0  0  0  0  0
   -1.2813    2.1845    0.2425 H   0  0  0  0  0  0  0  0  0  0  0  0
   -1.0782   -1.1781    1.7075 H   0  0  0  0  0  0  0  0  0  0  0  0
   -2.4987   -0.0749    1.3009 H   0  0  0  0  0  0  0  0  0  0  0  0
   -1.0557   -2.0080   -0.6467 H   0  0  0  0  0  0  0  0  0  0  0  0
   -2.4896   -0.8448   -1.0631 H   0  0  0  0  0  0  0  0  0  0  0  0
  1  2  1  0
  2  3  1  0
  3  4  1  0
  4  5  1  0
  5  6  1  0
  6  7  1  0
  7  8  1  0
  8  9  1  0
  5  3  1  0
  9  7  1  0
  7  3  1  0
  1 10  1  0
  2 11  1  0
  2 12  1  0
  5 13  1  0
  6 14  1  0
  6 15  1  0
  8 16  1  0
  8 17  1  0
  9 18  1  0
  9 19  1  0
M  END
