
     RDKit          3D

 23 23  0  0  0  0  0  0  0  0999 V2000
    2.9610    0.6819    0.3351 O   0  0  0  0  0  0  0  0  0  0  0  0
    2.0033   -0.2936    0.5411 C   0  0  0  0  0  0  0  0  0  0  0  0
    0.8384   -0.0194   -0.4117 C   0  0  0  0  0  0  0  0  0  0  0  0
    0.2876    1.3253   -0.1122 C   0  0  0  0  0  0  0  0  0  0  0  0
   -1.1312    1.4744   -0.6040 C   0  0  0  0  0  0  0  0  0  0  0  0
   -2.0497    0.4515   -0.0396 C   0  0  0  0  0  0  0  0  0  0  0  0
   -1.4325   -0.8604    0.2679 C   0  0  0  0  0  0  0  0  0  0  0  0
   -0.1329   -1.1349   -0.4038 C   0  0  0  0  0  0  0  0  0  0  0  0
    0.4597   -2.2264    0.2768 O   0  0  0  0  0  0  0  0  0  0  0  0
    3.8082    0.4617    0.8095 H   0  0  0  0  0  0  0  0  0  0  0  0
    2.3619   -1.3186    0.3197 H   0  0  0  0  0  0  0  0  0  0  0  0
    1.5529   -0.2337    1.5673 H   0  0  0  0  0  0  0  0  0  0  0  0
    1.3146    0.0315   -1.4332 H   0  0  0  0  0  0  0  0  0  0  0  0
    0.3346    1.4979    0.9754 H   0  0  0  0  0  0  0  0  0  0  0  0
    0.8892    2.0971   -0.6359 H   0  0  0  0  0  0  0  0  0  0  0  0
   -1.1347    1.4814   -1.7114 H   0  0  0  0  0  0  0  0  0  0  0  0
   -1.4743    2.4880   -0.2850 H   0  0  0  0  0  0  0  0  0  0  0  0
   -2.4768    0.8632    0.9155 H   0  0  0  0  0  0  0  0  0  0  0  0
   -2.9378    0.3539   -0.7182 H   0  0  0  0  0  0  0  0  0  0  0  0
   -2.1491   -1.6616   -0.0838 H   0  0  0  0  0  0  0  0  0  0  0  0
   -1.3313   -1.0680    1.3721 H   0  0  0  0  0  0  0  0  0  0  0  0
   -0.3103   -1.5324   -1.4470 H   0  0  0  0  0  0  0  0  0  0  0  0
   -0.2509   -2.8588    0.5055 H   0  0  0  0  0  0  0  0  0  0  0  0
  1  2  1  0
  2  3  1  0
  3  4  1  0
  4  5  1  0
  5  6  1  0
  6  7  1  0
  7  8  1  0
  8  9  1  0
  8  3  1  0
  1 10  1  0
  2 11  1  0
  2 12  1  0
  3 13  1  0
  4 14  1  0
  4 15  1  0
  5 16  1  0
  5 17  1  0
  6 18  1  0
  6 19  1  0
  7 20  1  0
  7 21  1  0
  8 22  1  0
  9 23  1  0
M  END
