
     RDKit          3D

 21 22  0  0  0  0  0  0  0  0999 V2000
    3.2002   -0.5613    0.9284 O   0  0  0  0  0  0  0  0  0  0  0  0
    2.6689    0.2899   -0.0325 C   0  0  0  0  0  0  0  0  0  0  0  0
    1.2303    0.0046   -0.3077 C   0  0  0  0  0  0  0  0  0  0  0  0
    0.6657   -0.3479   -1.4544 C   0  0  0  0  0  0  0  0  0  0  0  0
   -0.7962   -0.5403   -1.3132 C   0  0  0  0  0  0  0  0  0  0  0  0
   -1.1287    0.0022    0.0545 C   0  0  0  0  0  0  0  0  0  0  0  0
   -2.3482   -0.5125    0.6824 C   0  0  0  0  0  0  0  0  0  0  0  0
   -2.2206    0.9412    0.2908 C   0  0  0  0  0  0  0  0  0  0  0  0
    0.1875    0.0919    0.7622 C   0  0  0  0  0  0  0  0  0  0  0  0
    3.5056   -0.0756    1.7474 H   0  0  0  0  0  0  0  0  0  0  0  0
    3.2625    0.1754   -0.9713 H   0  0  0  0  0  0  0  0  0  0  0  0
    2.7298    1.3508    0.2624 H   0  0  0  0  0  0  0  0  0  0  0  0
    1.2097   -0.4777   -2.3763 H   0  0  0  0  0  0  0  0  0  0  0  0
   -1.3835   -0.1001   -2.1210 H   0  0  0  0  0  0  0  0  0  0  0  0
   -1.0189   -1.6467   -1.3336 H   0  0  0  0  0  0  0  0  0  0  0  0
   -3.0590   -1.0934    0.0415 H   0  0  0  0  0  0  0  0  0  0  0  0
   -2.3362   -0.8147    1.7313 H   0  0  0  0  0  0  0  0  0  0  0  0
   -2.0917    1.6186    1.1853 H   0  0  0  0  0  0  0  0  0  0  0  0
   -2.8938    1.3363   -0.4633 H   0  0  0  0  0  0  0  0  0  0  0  0
    0.3441   -0.7352    1.4745 H   0  0  0  0  0  0  0  0  0  0  0  0
    0.2726    1.0947    1.2128 H   0  0  0  0  0  0  0  0  0  0  0  0
  1  2  1  0
  2  3  1  0
  3  4  2  0
  4  5  1  0
  5  6  1  0
  6  7  1  0
  7  8  1  0
  6  9  1  0
  9  3  1  0
  8  6  1  0
  1 10  1  0
  2 11  1  0
  2 12  1  0
  4 13  1  0
  5 14  1  0
  5 15  1  0
  7 16  1  0
  7 17  1  0
  8 18  1  0
  8 19  1  0
  9 20  1  0
  9 21  1  0
M  END
