
     RDKit          3D

 19 20  0  0  0  0  0  0  0  0999 V2000
    2.8163   -0.2302   -0.7592 O   0  0  0  0  0  0  0  0  0  0  0  0
    2.2719    0.4281    0.3272 C   0  0  0  0  0  0  0  0  0  0  0  0
    0.8288    0.0963    0.3958 C   0  0  0  0  0  0  0  0  0  0  0  0
   -0.0727    1.0679    0.3142 C   0  0  0  0  0  0  0  0  0  0  0  0
   -1.4998    0.7331    0.3831 C   0  0  0  0  0  0  0  0  0  0  0  0
   -2.2595    0.4831   -0.9168 C   0  0  0  0  0  0  0  0  0  0  0  0
   -1.7759   -0.6297   -0.0587 C   0  0  0  0  0  0  0  0  0  0  0  0
   -0.6935   -1.4115   -0.4130 O   0  0  0  0  0  0  0  0  0  0  0  0
    0.3303   -1.3008    0.5518 C   0  0  0  0  0  0  0  0  0  0  0  0
    3.3114   -1.0305   -0.4103 H   0  0  0  0  0  0  0  0  0  0  0  0
    2.4093    1.5182    0.3135 H   0  0  0  0  0  0  0  0  0  0  0  0
    2.7333    0.0790    1.2941 H   0  0  0  0  0  0  0  0  0  0  0  0
    0.2983    2.1054    0.1956 H   0  0  0  0  0  0  0  0  0  0  0  0
   -2.0652    1.2399    1.1885 H   0  0  0  0  0  0  0  0  0  0  0  0
   -1.6901    0.8173   -1.8025 H   0  0  0  0  0  0  0  0  0  0  0  0
   -3.3407    0.7133   -0.9045 H   0  0  0  0  0  0  0  0  0  0  0  0
   -2.5679   -1.2056    0.4702 H   0  0  0  0  0  0  0  0  0  0  0  0
   -0.1244   -1.4242    1.5415 H   0  0  0  0  0  0  0  0  0  0  0  0
    1.0901   -2.0489    0.3043 H   0  0  0  0  0  0  0  0  0  0  0  0
  1  2  1  0
  2  3  1  0
  3  4  2  0
  4  5  1  0
  5  6  1  0
  6  7  1  0
  7  8  1  0
  8  9  1  0
  9  3  1  0
  7  5  1  0
  1 10  1  0
  2 11  1  0
  2 12  1  0
  4 13  1  0
  5 14  1  0
  6 15  1  0
  6 16  1  0
  7 17  1  0
  9 18  1  0
  9 19  1  0
M  END
