
     RDKit          3D

 21 22  0  0  0  0  0  0  0  0999 V2000
   -2.0320    0.3911    1.4977 O   0  0  0  0  0  0  0  0  0  0  0  0
   -2.2045    0.0288    0.1705 C   0  0  0  0  0  0  0  0  0  0  0  0
   -0.8904   -0.2032   -0.5166 C   0  0  0  0  0  0  0  0  0  0  0  0
   -0.0862   -1.3303    0.1649 C   0  0  0  0  0  0  0  0  0  0  0  0
    1.2713   -0.8378   -0.1569 C   0  0  0  0  0  0  0  0  0  0  0  0
    2.2604   -0.0873    0.4937 C   0  0  0  0  0  0  0  0  0  0  0  0
    3.2450    0.6234   -0.2392 O   0  0  0  0  0  0  0  0  0  0  0  0
    1.0054    0.5435    0.5732 C   0  0  0  0  0  0  0  0  0  0  0  0
    0.0231    1.0149   -0.4331 C   0  0  0  0  0  0  0  0  0  0  0  0
   -2.7532    1.0204    1.7268 H   0  0  0  0  0  0  0  0  0  0  0  0
   -2.8790   -0.8398    0.0437 H   0  0  0  0  0  0  0  0  0  0  0  0
   -2.6920    0.8718   -0.3646 H   0  0  0  0  0  0  0  0  0  0  0  0
   -1.0149   -0.4545   -1.5850 H   0  0  0  0  0  0  0  0  0  0  0  0
   -0.3408   -2.2855   -0.3034 H   0  0  0  0  0  0  0  0  0  0  0  0
   -0.3742   -1.3032    1.2138 H   0  0  0  0  0  0  0  0  0  0  0  0
    1.3385   -0.7675   -1.2912 H   0  0  0  0  0  0  0  0  0  0  0  0
    2.7354   -0.5028    1.4144 H   0  0  0  0  0  0  0  0  0  0  0  0
    3.0067    0.5456   -1.1927 H   0  0  0  0  0  0  0  0  0  0  0  0
    0.4908    0.4666    1.5792 H   0  0  0  0  0  0  0  0  0  0  0  0
   -0.5715    1.8409   -0.0354 H   0  0  0  0  0  0  0  0  0  0  0  0
    0.4621    1.2648   -1.4187 H   0  0  0  0  0  0  0  0  0  0  0  0
  1  2  1  0
  2  3  1  0
  3  4  1  0
  4  5  1  0
  5  6  1  0
  6  7  1  0
  6  8  1  0
  8  9  1  0
  9  3  1  0
  8  5  1  0
  1 10  1  0
  2 11  1  0
  2 12  1  0
  3 13  1  0
  4 14  1  0
  4 15  1  0
  5 16  1  0
  6 17  1  0
  7 18  1  0
  8 19  1  0
  9 20  1  0
  9 21  1  0
M  END
