
     RDKit          3D

 21 22  0  0  0  0  0  0  0  0999 V2000
    2.8607   -0.5111    0.2134 O   0  0  0  0  0  0  0  0  0  0  0  0
    1.5554   -0.5736    0.7421 C   0  0  0  0  0  0  0  0  0  0  0  0
    0.6165   -0.1771   -0.3745 C   0  0  0  0  0  0  0  0  0  0  0  0
    0.9127    1.2239   -0.8645 C   0  0  0  0  0  0  0  0  0  0  0  0
   -0.2280    1.9751   -0.6878 O   0  0  0  0  0  0  0  0  0  0  0  0
   -0.8863    1.4119    0.4201 C   0  0  0  0  0  0  0  0  0  0  0  0
   -0.8067   -0.0430    0.0993 C   0  0  0  0  0  0  0  0  0  0  0  0
   -1.5536   -1.0849    0.7635 C   0  0  0  0  0  0  0  0  0  0  0  0
   -1.8238   -0.7510   -0.6876 C   0  0  0  0  0  0  0  0  0  0  0  0
    2.8374   -0.5399   -0.7758 H   0  0  0  0  0  0  0  0  0  0  0  0
    1.4520    0.1283    1.5759 H   0  0  0  0  0  0  0  0  0  0  0  0
    1.4139   -1.6186    1.0630 H   0  0  0  0  0  0  0  0  0  0  0  0
    0.7159   -0.9166   -1.1781 H   0  0  0  0  0  0  0  0  0  0  0  0
    1.7614    1.6310   -0.3126 H   0  0  0  0  0  0  0  0  0  0  0  0
    1.1099    1.1780   -1.9711 H   0  0  0  0  0  0  0  0  0  0  0  0
   -0.2520    1.5798    1.3381 H   0  0  0  0  0  0  0  0  0  0  0  0
   -1.8948    1.8116    0.5288 H   0  0  0  0  0  0  0  0  0  0  0  0
   -2.3770   -0.7696    1.4505 H   0  0  0  0  0  0  0  0  0  0  0  0
   -1.1539   -2.0810    1.0279 H   0  0  0  0  0  0  0  0  0  0  0  0
   -1.4717   -1.5489   -1.3892 H   0  0  0  0  0  0  0  0  0  0  0  0
   -2.7878   -0.3241   -0.9813 H   0  0  0  0  0  0  0  0  0  0  0  0
  1  2  1  0
  2  3  1  0
  3  4  1  0
  4  5  1  0
  5  6  1  0
  6  7  1  0
  7  8  1  0
  8  9  1  0
  7  3  1  0
  9  7  1  0
  1 10  1  0
  2 11  1  0
  2 12  1  0
  3 13  1  0
  4 14  1  0
  4 15  1  0
  6 16  1  0
  6 17  1  0
  8 18  1  0
  8 19  1  0
  9 20  1  0
  9 21  1  0
M  END
