
     RDKit          3D

 18 18  0  0  0  0  0  0  0  0999 V2000
    2.7510    0.1075    1.0128 O   0  0  0  0  0  0  0  0  0  0  0  0
    1.9437   -0.4669    0.0427 C   0  0  0  0  0  0  0  0  0  0  0  0
    0.6586    0.3290   -0.1417 C   0  0  0  0  0  0  0  0  0  0  0  0
   -0.1120    0.4388    1.1414 C   0  0  0  0  0  0  0  0  0  0  0  0
   -1.5295    0.2769    0.7165 C   0  0  0  0  0  0  0  0  0  0  0  0
   -2.1949   -0.6835    1.4990 O   0  0  0  0  0  0  0  0  0  0  0  0
   -1.4407   -0.2189   -0.6825 C   0  0  0  0  0  0  0  0  0  0  0  0
   -0.1431   -0.2260   -1.0929 O   0  0  0  0  0  0  0  0  0  0  0  0
    3.5931    0.4798    0.6527 H   0  0  0  0  0  0  0  0  0  0  0  0
    1.7637   -1.5080    0.3279 H   0  0  0  0  0  0  0  0  0  0  0  0
    2.5034   -0.4355   -0.9142 H   0  0  0  0  0  0  0  0  0  0  0  0
    0.9551    1.3454   -0.4758 H   0  0  0  0  0  0  0  0  0  0  0  0
    0.2172   -0.2962    1.9151 H   0  0  0  0  0  0  0  0  0  0  0  0
    0.0015    1.4685    1.5787 H   0  0  0  0  0  0  0  0  0  0  0  0
   -2.1146    1.2187    0.8138 H   0  0  0  0  0  0  0  0  0  0  0  0
   -2.9463   -1.0122    0.9092 H   0  0  0  0  0  0  0  0  0  0  0  0
   -1.8407   -1.2715   -0.7640 H   0  0  0  0  0  0  0  0  0  0  0  0
   -2.0654    0.4542   -1.3378 H   0  0  0  0  0  0  0  0  0  0  0  0
  1  2  1  0
  2  3  1  0
  3  4  1  0
  4  5  1  0
  5  6  1  0
  5  7  1  0
  7  8  1  0
  8  3  1  0
  1  9  1  0
  2 10  1  0
  2 11  1  0
  3 12  1  0
  4 13  1  0
  4 14  1  0
  5 15  1  0
  6 16  1  0
  7 17  1  0
  7 18  1  0
M  END
