
     RDKit          3D

 21 22  0  0  0  0  0  0  0  0999 V2000
    2.2282   -0.5874    1.0098 O   0  0  0  0  0  0  0  0  0  0  0  0
    1.9086   -0.2728   -0.2995 C   0  0  0  0  0  0  0  0  0  0  0  0
    0.4747    0.0462   -0.4787 C   0  0  0  0  0  0  0  0  0  0  0  0
   -0.4820   -1.0354   -0.1196 C   0  0  0  0  0  0  0  0  0  0  0  0
   -0.7436   -0.8934    1.3811 C   0  0  0  0  0  0  0  0  0  0  0  0
   -1.2748    0.4711    0.9635 C   0  0  0  0  0  0  0  0  0  0  0  0
   -1.8128   -0.2780   -0.2644 C   0  0  0  0  0  0  0  0  0  0  0  0
   -0.0072    1.1298    0.5023 C   0  0  0  0  0  0  0  0  0  0  0  0
   -0.1670    2.3423   -0.0888 O   0  0  0  0  0  0  0  0  0  0  0  0
    3.1263   -0.2628    1.1884 H   0  0  0  0  0  0  0  0  0  0  0  0
    2.5121    0.5589   -0.7057 H   0  0  0  0  0  0  0  0  0  0  0  0
    2.1461   -1.1613   -0.9136 H   0  0  0  0  0  0  0  0  0  0  0  0
    0.2915    0.4335   -1.4997 H   0  0  0  0  0  0  0  0  0  0  0  0
   -0.4202   -2.0040   -0.5314 H   0  0  0  0  0  0  0  0  0  0  0  0
   -1.5537   -1.5590    1.7045 H   0  0  0  0  0  0  0  0  0  0  0  0
    0.1362   -0.8471    2.0145 H   0  0  0  0  0  0  0  0  0  0  0  0
   -1.9611    0.9709    1.5853 H   0  0  0  0  0  0  0  0  0  0  0  0
   -1.8627    0.3146   -1.1782 H   0  0  0  0  0  0  0  0  0  0  0  0
   -2.6389   -0.9403   -0.0160 H   0  0  0  0  0  0  0  0  0  0  0  0
    0.7313    1.2045    1.3152 H   0  0  0  0  0  0  0  0  0  0  0  0
   -0.6309    2.3698   -0.9388 H   0  0  0  0  0  0  0  0  0  0  0  0
  1  2  1  0
  2  3  1  0
  3  4  1  0
  4  5  1  0
  5  6  1  0
  6  7  1  0
  6  8  1  0
  8  9  1  0
  8  3  1  0
  7  4  1  0
  1 10  1  0
  2 11  1  0
  2 12  1  0
  3 13  1  0
  4 14  1  0
  5 15  1  0
  5 16  1  0
  6 17  1  0
  7 18  1  0
  7 19  1  0
  8 20  1  0
  9 21  1  0
M  END
