
     RDKit          3D

 16 17  0  0  0  0  0  0  0  0999 V2000
    1.8564   -0.0066   -1.2600 O   0  0  0  0  0  0  0  0  0  0  0  0
    1.7282    0.5985   -0.0134 C   0  0  0  0  0  0  0  0  0  0  0  0
    0.3175    0.4239    0.5090 C   0  0  0  0  0  0  0  0  0  0  0  0
   -0.5518    1.0310   -0.4176 O   0  0  0  0  0  0  0  0  0  0  0  0
   -1.7020    0.2309   -0.5038 C   0  0  0  0  0  0  0  0  0  0  0  0
   -1.5820   -0.6416    0.6913 C   0  0  0  0  0  0  0  0  0  0  0  0
   -0.9700   -1.7650    0.9504 O   0  0  0  0  0  0  0  0  0  0  0  0
   -0.0934   -1.0015    0.3663 C   0  0  0  0  0  0  0  0  0  0  0  0
    2.3626   -0.8423   -1.2213 H   0  0  0  0  0  0  0  0  0  0  0  0
    2.0017    1.6639   -0.1319 H   0  0  0  0  0  0  0  0  0  0  0  0
    2.4465    0.1721    0.7189 H   0  0  0  0  0  0  0  0  0  0  0  0
    0.1650    0.8640    1.4919 H   0  0  0  0  0  0  0  0  0  0  0  0
   -1.7787   -0.2896   -1.4653 H   0  0  0  0  0  0  0  0  0  0  0  0
   -2.5661    0.9204   -0.3731 H   0  0  0  0  0  0  0  0  0  0  0  0
   -1.7321   -0.0274    1.6340 H   0  0  0  0  0  0  0  0  0  0  0  0
    0.0983   -1.3307   -0.7038 H   0  0  0  0  0  0  0  0  0  0  0  0
  1  2  1  0
  2  3  1  0
  3  4  1  0
  4  5  1  0
  5  6  1  0
  6  7  1  0
  7  8  1  0
  8  3  1  0
  8  6  1  0
  1  9  1  0
  2 10  1  0
  2 11  1  0
  3 12  1  0
  5 13  1  0
  5 14  1  0
  6 15  1  0
  8 16  1  0
M  END
