
     RDKit          3D

 19 21  0  0  0  0  0  0  0  0999 V2000
    1.4572    1.6076    0.4469 O   0  0  0  0  0  0  0  0  0  0  0  0
    2.1983    0.4505    0.3483 C   0  0  0  0  0  0  0  0  0  0  0  0
    1.2147   -0.7320    0.3447 C   0  0  0  0  0  0  0  0  0  0  0  0
    0.2258   -0.8473   -0.6641 C   0  0  0  0  0  0  0  0  0  0  0  0
   -1.2096   -1.3486   -0.5464 C   0  0  0  0  0  0  0  0  0  0  0  0
   -1.3188    0.0181    0.1424 C   0  0  0  0  0  0  0  0  0  0  0  0
   -1.7724    1.1840   -0.2778 C   0  0  0  0  0  0  0  0  0  0  0  0
   -2.4162    0.3903    0.8322 O   0  0  0  0  0  0  0  0  0  0  0  0
   -0.0990   -0.4768    0.8472 C   0  0  0  0  0  0  0  0  0  0  0  0
    1.4994    2.0608   -0.4375 H   0  0  0  0  0  0  0  0  0  0  0  0
    2.8262    0.4387   -0.5764 H   0  0  0  0  0  0  0  0  0  0  0  0
    2.9356    0.3329    1.1898 H   0  0  0  0  0  0  0  0  0  0  0  0
    1.8059   -1.6780    0.5596 H   0  0  0  0  0  0  0  0  0  0  0  0
    0.1763    0.0576   -1.3540 H   0  0  0  0  0  0  0  0  0  0  0  0
   -1.3630   -2.1351    0.1967 H   0  0  0  0  0  0  0  0  0  0  0  0
   -1.7118   -1.4334   -1.5042 H   0  0  0  0  0  0  0  0  0  0  0  0
   -1.4352    2.1771    0.0718 H   0  0  0  0  0  0  0  0  0  0  0  0
   -2.5501    1.2936   -1.0897 H   0  0  0  0  0  0  0  0  0  0  0  0
   -0.4630   -1.3600    1.4706 H   0  0  0  0  0  0  0  0  0  0  0  0
  1  2  1  0
  2  3  1  0
  3  4  1  0
  4  5  1  0
  5  6  1  0
  6  7  1  0
  7  8  1  0
  6  9  1  0
  9  3  1  0
  9  4  1  0
  8  6  1  0
  1 10  1  0
  2 11  1  0
  2 12  1  0
  3 13  1  0
  4 14  1  0
  5 15  1  0
  5 16  1  0
  7 17  1  0
  7 18  1  0
  9 19  1  0
M  END
