
     RDKit          3D

 18 19  0  0  0  0  0  0  0  0999 V2000
    2.5780    0.7626   -0.0534 O   0  0  0  0  0  0  0  0  0  0  0  0
    1.6702   -0.0721    0.6503 C   0  0  0  0  0  0  0  0  0  0  0  0
    0.5143   -0.2830   -0.2465 C   0  0  0  0  0  0  0  0  0  0  0  0
   -0.6267   -1.1237    0.1842 C   0  0  0  0  0  0  0  0  0  0  0  0
   -1.3729   -0.4262   -0.9405 C   0  0  0  0  0  0  0  0  0  0  0  0
   -0.6227    0.6924   -0.2229 C   0  0  0  0  0  0  0  0  0  0  0  0
   -0.6295    1.9018   -0.5208 O   0  0  0  0  0  0  0  0  0  0  0  0
   -1.0926    0.0122    1.0229 C   0  0  0  0  0  0  0  0  0  0  0  0
    3.2667    0.2180   -0.4963 H   0  0  0  0  0  0  0  0  0  0  0  0
    1.3880    0.5251    1.5305 H   0  0  0  0  0  0  0  0  0  0  0  0
    2.1724   -1.0199    0.9527 H   0  0  0  0  0  0  0  0  0  0  0  0
    0.7815   -0.5582   -1.3160 H   0  0  0  0  0  0  0  0  0  0  0  0
   -0.6539   -2.1034    0.3789 H   0  0  0  0  0  0  0  0  0  0  0  0
   -0.9450   -0.6840   -1.9294 H   0  0  0  0  0  0  0  0  0  0  0  0
   -2.4565   -0.3946   -0.8532 H   0  0  0  0  0  0  0  0  0  0  0  0
   -1.2287    2.3073   -1.1940 H   0  0  0  0  0  0  0  0  0  0  0  0
   -0.5411    0.2875    1.9157 H   0  0  0  0  0  0  0  0  0  0  0  0
   -2.2013   -0.0418    1.1378 H   0  0  0  0  0  0  0  0  0  0  0  0
  1  2  1  0
  2  3  1  0
  3  4  1  0
  4  5  1  0
  5  6  1  0
  6  7  1  0
  6  8  1  0
  6  3  1  0
  8  4  1  0
  1  9  1  0
  2 10  1  0
  2 11  1  0
  3 12  1  0
  4 13  1  0
  5 14  1  0
  5 15  1  0
  7 16  1  0
  8 17  1  0
  8 18  1  0
M  END
