
     RDKit          3D

 20 21  0  0  0  0  0  0  0  0999 V2000
    1.6871   -1.1177    0.9369 O   0  0  0  0  0  0  0  0  0  0  0  0
    1.5131   -0.9884   -0.4340 C   0  0  0  0  0  0  0  0  0  0  0  0
    0.4899    0.0768   -0.7393 C   0  0  0  0  0  0  0  0  0  0  0  0
    0.8532    1.4536   -0.2212 C   0  0  0  0  0  0  0  0  0  0  0  0
   -0.5102    1.5235    0.4783 C   0  0  0  0  0  0  0  0  0  0  0  0
   -0.7328    0.1194    0.0580 C   0  0  0  0  0  0  0  0  0  0  0  0
   -1.3640   -0.9142    0.8247 C   0  0  0  0  0  0  0  0  0  0  0  0
   -1.9813   -0.4211   -0.4564 C   0  0  0  0  0  0  0  0  0  0  0  0
    2.6276   -1.3539    1.1231 H   0  0  0  0  0  0  0  0  0  0  0  0
    2.4956   -0.5848   -0.8241 H   0  0  0  0  0  0  0  0  0  0  0  0
    1.2934   -1.9479   -0.9149 H   0  0  0  0  0  0  0  0  0  0  0  0
    0.2816    0.1189   -1.8416 H   0  0  0  0  0  0  0  0  0  0  0  0
    1.0048    2.2248   -0.9936 H   0  0  0  0  0  0  0  0  0  0  0  0
    1.7063    1.4153    0.5137 H   0  0  0  0  0  0  0  0  0  0  0  0
   -0.3837    1.6262    1.5763 H   0  0  0  0  0  0  0  0  0  0  0  0
   -1.1958    2.2600    0.0220 H   0  0  0  0  0  0  0  0  0  0  0  0
   -1.0332   -1.9667    0.9058 H   0  0  0  0  0  0  0  0  0  0  0  0
   -1.9585   -0.6037    1.7320 H   0  0  0  0  0  0  0  0  0  0  0  0
   -2.8827    0.2123   -0.4379 H   0  0  0  0  0  0  0  0  0  0  0  0
   -1.9104   -1.1326   -1.3077 H   0  0  0  0  0  0  0  0  0  0  0  0
  1  2  1  0
  2  3  1  0
  3  4  1  0
  4  5  1  0
  5  6  1  0
  6  7  1  0
  7  8  1  0
  6  3  1  0
  8  6  1  0
  1  9  1  0
  2 10  1  0
  2 11  1  0
  3 12  1  0
  4 13  1  0
  4 14  1  0
  5 15  1  0
  5 16  1  0
  7 17  1  0
  7 18  1  0
  8 19  1  0
  8 20  1  0
M  END
