
     RDKit          3D

 19 20  0  0  0  0  0  0  0  0999 V2000
    1.9380   -1.4826   -0.4300 O   0  0  0  0  0  0  0  0  0  0  0  0
    1.3978   -0.6247    0.5467 C   0  0  0  0  0  0  0  0  0  0  0  0
    0.1931   -0.0932    0.1687 C   0  0  0  0  0  0  0  0  0  0  0  0
   -0.0722    0.7664   -1.0425 C   0  0  0  0  0  0  0  0  0  0  0  0
   -1.4012    0.6833   -0.3570 C   0  0  0  0  0  0  0  0  0  0  0  0
   -1.0871   -0.7722   -0.1332 C   0  0  0  0  0  0  0  0  0  0  0  0
   -1.1411   -1.5883   -1.2311 O   0  0  0  0  0  0  0  0  0  0  0  0
   -0.6272    0.9157    0.9286 C   0  0  0  0  0  0  0  0  0  0  0  0
   -0.0625    2.1753    1.0454 O   0  0  0  0  0  0  0  0  0  0  0  0
    2.8269   -1.1870   -0.7359 H   0  0  0  0  0  0  0  0  0  0  0  0
    2.1781    0.1650    0.7308 H   0  0  0  0  0  0  0  0  0  0  0  0
    1.3462   -1.2294    1.4707 H   0  0  0  0  0  0  0  0  0  0  0  0
    0.0301    0.2932   -2.0162 H   0  0  0  0  0  0  0  0  0  0  0  0
    0.4172    1.7559   -0.9213 H   0  0  0  0  0  0  0  0  0  0  0  0
   -2.2702    1.0953   -0.6130 H   0  0  0  0  0  0  0  0  0  0  0  0
   -1.6231   -1.1298    0.7830 H   0  0  0  0  0  0  0  0  0  0  0  0
   -1.8207   -2.3054   -1.0322 H   0  0  0  0  0  0  0  0  0  0  0  0
   -1.1600    0.5257    1.7971 H   0  0  0  0  0  0  0  0  0  0  0  0
    0.9380    2.0366    1.0416 H   0  0  0  0  0  0  0  0  0  0  0  0
  1  2  1  0
  2  3  1  0
  3  4  1  0
  4  5  1  0
  5  6  1  0
  6  7  1  0
  5  8  1  0
  8  9  1  0
  6  3  1  0
  8  3  1  0
  1 10  1  0
  2 11  1  0
  2 12  1  0
  4 13  1  0
  4 14  1  0
  5 15  1  0
  6 16  1  0
  7 17  1  0
  8 18  1  0
  9 19  1  0
M  END
