
     RDKit          3D

 21 22  0  0  0  0  0  0  0  0999 V2000
    3.2102    0.9042    0.1415 O   0  0  0  0  0  0  0  0  0  0  0  0
    2.3960    0.0413   -0.5788 C   0  0  0  0  0  0  0  0  0  0  0  0
    1.1676   -0.2333    0.2482 C   0  0  0  0  0  0  0  0  0  0  0  0
    0.1649   -1.1697   -0.4036 C   0  0  0  0  0  0  0  0  0  0  0  0
   -0.8904   -0.1952   -0.0634 C   0  0  0  0  0  0  0  0  0  0  0  0
    0.1158    0.8805    0.1723 C   0  0  0  0  0  0  0  0  0  0  0  0
   -2.1515   -0.0195   -0.7495 C   0  0  0  0  0  0  0  0  0  0  0  0
   -2.0600   -0.4387    0.7452 C   0  0  0  0  0  0  0  0  0  0  0  0
   -2.5566    0.5377    1.6381 O   0  0  0  0  0  0  0  0  0  0  0  0
    3.1123    0.7111    1.1252 H   0  0  0  0  0  0  0  0  0  0  0  0
    2.8971   -0.8852   -0.8739 H   0  0  0  0  0  0  0  0  0  0  0  0
    2.1385    0.5809   -1.5312 H   0  0  0  0  0  0  0  0  0  0  0  0
    1.4355   -0.5090    1.2811 H   0  0  0  0  0  0  0  0  0  0  0  0
    0.1275   -2.1657    0.0367 H   0  0  0  0  0  0  0  0  0  0  0  0
    0.3347   -1.1800   -1.5200 H   0  0  0  0  0  0  0  0  0  0  0  0
   -0.0186    1.4448    1.0942 H   0  0  0  0  0  0  0  0  0  0  0  0
    0.2253    1.5292   -0.7245 H   0  0  0  0  0  0  0  0  0  0  0  0
   -2.4926    1.0213   -0.9419 H   0  0  0  0  0  0  0  0  0  0  0  0
   -2.5706   -0.8187   -1.4249 H   0  0  0  0  0  0  0  0  0  0  0  0
   -2.3789   -1.4540    1.0015 H   0  0  0  0  0  0  0  0  0  0  0  0
   -2.2062    1.4178    1.3276 H   0  0  0  0  0  0  0  0  0  0  0  0
  1  2  1  0
  2  3  1  0
  3  4  1  0
  4  5  1  0
  5  6  1  0
  5  7  1  0
  7  8  1  0
  8  9  1  0
  6  3  1  0
  8  5  1  0
  1 10  1  0
  2 11  1  0
  2 12  1  0
  3 13  1  0
  4 14  1  0
  4 15  1  0
  6 16  1  0
  6 17  1  0
  7 18  1  0
  7 19  1  0
  8 20  1  0
  9 21  1  0
M  END
