
     RDKit          3D

 19 20  0  0  0  0  0  0  0  0999 V2000
    2.5525    0.2579   -1.2181 O   0  0  0  0  0  0  0  0  0  0  0  0
    2.2289   -0.2407    0.0465 C   0  0  0  0  0  0  0  0  0  0  0  0
    0.7721   -0.1255    0.3369 C   0  0  0  0  0  0  0  0  0  0  0  0
   -0.0074   -1.1608    0.5963 C   0  0  0  0  0  0  0  0  0  0  0  0
   -1.4037   -0.7372    0.8450 C   0  0  0  0  0  0  0  0  0  0  0  0
   -2.1559   -1.1387   -0.2685 O   0  0  0  0  0  0  0  0  0  0  0  0
   -1.3180    0.7713    0.8528 C   0  0  0  0  0  0  0  0  0  0  0  0
   -1.1433    1.3979   -0.4861 C   0  0  0  0  0  0  0  0  0  0  0  0
    0.0315    1.1490    0.3692 C   0  0  0  0  0  0  0  0  0  0  0  0
    2.5510   -0.5115   -1.8356 H   0  0  0  0  0  0  0  0  0  0  0  0
    2.8260    0.3646    0.7849 H   0  0  0  0  0  0  0  0  0  0  0  0
    2.6018   -1.2708    0.1205 H   0  0  0  0  0  0  0  0  0  0  0  0
    0.3004   -2.2088    0.6320 H   0  0  0  0  0  0  0  0  0  0  0  0
   -1.7839   -1.1322    1.7885 H   0  0  0  0  0  0  0  0  0  0  0  0
   -1.8977   -2.0155   -0.6084 H   0  0  0  0  0  0  0  0  0  0  0  0
   -1.8475    1.3336    1.6247 H   0  0  0  0  0  0  0  0  0  0  0  0
   -1.3762    0.7756   -1.3780 H   0  0  0  0  0  0  0  0  0  0  0  0
   -1.4566    2.4472   -0.6086 H   0  0  0  0  0  0  0  0  0  0  0  0
    0.5261    2.0445    0.8380 H   0  0  0  0  0  0  0  0  0  0  0  0
  1  2  1  0
  2  3  1  0
  3  4  2  0
  4  5  1  0
  5  6  1  0
  5  7  1  0
  7  8  1  0
  8  9  1  0
  9  3  1  0
  9  7  1  0
  1 10  1  0
  2 11  1  0
  2 12  1  0
  4 13  1  0
  5 14  1  0
  6 15  1  0
  7 16  1  0
  8 17  1  0
  8 18  1  0
  9 19  1  0
M  END
