
     RDKit          3D

 19 20  0  0  0  0  0  0  0  0999 V2000
    3.0271   -0.8267    0.6942 O   0  0  0  0  0  0  0  0  0  0  0  0
    2.3444    0.1415   -0.0362 C   0  0  0  0  0  0  0  0  0  0  0  0
    0.9056   -0.2778   -0.2709 C   0  0  0  0  0  0  0  0  0  0  0  0
    0.2562   -0.4534    0.9341 O   0  0  0  0  0  0  0  0  0  0  0  0
   -1.1211   -0.4415    0.8176 C   0  0  0  0  0  0  0  0  0  0  0  0
   -1.5736   -0.7159   -0.6160 C   0  0  0  0  0  0  0  0  0  0  0  0
   -1.0735    0.7070   -0.9046 C   0  0  0  0  0  0  0  0  0  0  0  0
   -1.5169    1.0142    0.5315 C   0  0  0  0  0  0  0  0  0  0  0  0
    0.3018    0.7385   -1.0081 O   0  0  0  0  0  0  0  0  0  0  0  0
    2.7933   -0.7934    1.6555 H   0  0  0  0  0  0  0  0  0  0  0  0
    2.4429    1.1532    0.3632 H   0  0  0  0  0  0  0  0  0  0  0  0
    2.8311    0.1461   -1.0548 H   0  0  0  0  0  0  0  0  0  0  0  0
    0.9494   -1.2409   -0.8220 H   0  0  0  0  0  0  0  0  0  0  0  0
   -1.6912   -0.9331    1.5970 H   0  0  0  0  0  0  0  0  0  0  0  0
   -1.0484   -1.5074   -1.1361 H   0  0  0  0  0  0  0  0  0  0  0  0
   -2.6566   -0.7842   -0.6859 H   0  0  0  0  0  0  0  0  0  0  0  0
   -1.6255    1.2254   -1.6824 H   0  0  0  0  0  0  0  0  0  0  0  0
   -0.9298    1.7612    1.0512 H   0  0  0  0  0  0  0  0  0  0  0  0
   -2.6153    1.0872    0.5730 H   0  0  0  0  0  0  0  0  0  0  0  0
  1  2  1  0
  2  3  1  0
  3  4  1  0
  4  5  1  0
  5  6  1  0
  6  7  1  0
  7  8  1  0
  7  9  1  0
  9  3  1  0
  8  5  1  0
  1 10  1  0
  2 11  1  0
  2 12  1  0
  3 13  1  0
  5 14  1  0
  6 15  1  0
  6 16  1  0
  7 17  1  0
  8 18  1  0
  8 19  1  0
M  END
