
     RDKit          3D

 19 20  0  0  0  0  0  0  0  0999 V2000
    2.2966    1.2983   -0.1000 O   0  0  0  0  0  0  0  0  0  0  0  0
    1.7476    0.0945   -0.5987 C   0  0  0  0  0  0  0  0  0  0  0  0
    0.4437   -0.1884    0.0896 C   0  0  0  0  0  0  0  0  0  0  0  0
   -0.2738   -1.4173   -0.3118 C   0  0  0  0  0  0  0  0  0  0  0  0
   -1.5976   -0.6990   -0.2391 C   0  0  0  0  0  0  0  0  0  0  0  0
   -2.1947   -0.8606    1.0303 O   0  0  0  0  0  0  0  0  0  0  0  0
   -0.7804    0.5902   -0.1955 C   0  0  0  0  0  0  0  0  0  0  0  0
   -0.8247    1.4667   -1.2362 O   0  0  0  0  0  0  0  0  0  0  0  0
   -0.0410    0.8006    1.0502 C   0  0  0  0  0  0  0  0  0  0  0  0
    2.4719    1.1354    0.8772 H   0  0  0  0  0  0  0  0  0  0  0  0
    2.4587   -0.7066   -0.2946 H   0  0  0  0  0  0  0  0  0  0  0  0
    1.6999    0.0931   -1.6878 H   0  0  0  0  0  0  0  0  0  0  0  0
   -0.1637   -2.3189    0.2884 H   0  0  0  0  0  0  0  0  0  0  0  0
   -0.0622   -1.6525   -1.3971 H   0  0  0  0  0  0  0  0  0  0  0  0
   -2.2705   -0.8049   -1.0841 H   0  0  0  0  0  0  0  0  0  0  0  0
   -1.5437   -1.2591    1.6464 H   0  0  0  0  0  0  0  0  0  0  0  0
   -1.3810    2.2412   -1.0005 H   0  0  0  0  0  0  0  0  0  0  0  0
   -0.5084    0.4612    2.0069 H   0  0  0  0  0  0  0  0  0  0  0  0
    0.5234    1.7260    1.1563 H   0  0  0  0  0  0  0  0  0  0  0  0
  1  2  1  0
  2  3  1  0
  3  4  1  0
  4  5  1  0
  5  6  1  0
  5  7  1  0
  7  8  1  0
  7  9  1  0
  7  3  1  0
  9  3  1  0
  1 10  1  0
  2 11  1  0
  2 12  1  0
  4 13  1  0
  4 14  1  0
  5 15  1  0
  6 16  1  0
  8 17  1  0
  9 18  1  0
  9 19  1  0
M  END
