
     RDKit          3D

 19 20  0  0  0  0  0  0  0  0999 V2000
   -2.9282    0.4856    0.5300 O   0  0  0  0  0  0  0  0  0  0  0  0
   -2.1296   -0.2645   -0.3466 C   0  0  0  0  0  0  0  0  0  0  0  0
   -0.6862   -0.0775    0.0520 C   0  0  0  0  0  0  0  0  0  0  0  0
   -0.3063    1.2688   -0.0192 O   0  0  0  0  0  0  0  0  0  0  0  0
    1.0669    1.3311    0.2137 C   0  0  0  0  0  0  0  0  0  0  0  0
    1.8138    0.2409   -0.5149 C   0  0  0  0  0  0  0  0  0  0  0  0
    1.4983   -1.1253    0.0055 C   0  0  0  0  0  0  0  0  0  0  0  0
    0.2481   -0.8636   -0.8031 C   0  0  0  0  0  0  0  0  0  0  0  0
    1.0261   -0.0690   -1.6477 O   0  0  0  0  0  0  0  0  0  0  0  0
   -3.2426    1.3165    0.1060 H   0  0  0  0  0  0  0  0  0  0  0  0
   -2.3286    0.1285   -1.3618 H   0  0  0  0  0  0  0  0  0  0  0  0
   -2.3534   -1.3459   -0.2535 H   0  0  0  0  0  0  0  0  0  0  0  0
   -0.5706   -0.3703    1.1158 H   0  0  0  0  0  0  0  0  0  0  0  0
    1.3259    1.3962    1.2794 H   0  0  0  0  0  0  0  0  0  0  0  0
    1.4079    2.3001   -0.2526 H   0  0  0  0  0  0  0  0  0  0  0  0
    2.8545    0.4748   -0.7387 H   0  0  0  0  0  0  0  0  0  0  0  0
    1.3427   -1.2202    1.0894 H   0  0  0  0  0  0  0  0  0  0  0  0
    2.1194   -1.8850   -0.4814 H   0  0  0  0  0  0  0  0  0  0  0  0
   -0.1582   -1.7211   -1.3443 H   0  0  0  0  0  0  0  0  0  0  0  0
  1  2  1  0
  2  3  1  0
  3  4  1  0
  4  5  1  0
  5  6  1  0
  6  7  1  0
  7  8  1  0
  8  9  1  0
  8  3  1  0
  9  6  1  0
  1 10  1  0
  2 11  1  0
  2 12  1  0
  3 13  1  0
  5 14  1  0
  5 15  1  0
  6 16  1  0
  7 17  1  0
  7 18  1  0
  8 19  1  0
M  END
