
     RDKit          3D

 18 19  0  0  0  0  0  0  0  0999 V2000
    2.6846    0.1680    0.5831 O   0  0  0  0  0  0  0  0  0  0  0  0
    1.5669    0.9310    0.2423 C   0  0  0  0  0  0  0  0  0  0  0  0
    0.3856    0.2668    0.0574 C   0  0  0  0  0  0  0  0  0  0  0  0
   -0.3580   -0.5791    1.0650 C   0  0  0  0  0  0  0  0  0  0  0  0
   -1.2462   -0.6225   -0.1515 C   0  0  0  0  0  0  0  0  0  0  0  0
   -2.3407   -1.1965   -0.3117 O   0  0  0  0  0  0  0  0  0  0  0  0
    0.0332   -0.7809   -0.9406 C   0  0  0  0  0  0  0  0  0  0  0  0
   -0.9621    0.8741   -0.2482 C   0  0  0  0  0  0  0  0  0  0  0  0
    2.7494   -0.6666    0.0507 H   0  0  0  0  0  0  0  0  0  0  0  0
    1.8878    1.5175   -0.6613 H   0  0  0  0  0  0  0  0  0  0  0  0
    1.5047    1.7219    1.0498 H   0  0  0  0  0  0  0  0  0  0  0  0
    0.1041   -1.5247    1.3422 H   0  0  0  0  0  0  0  0  0  0  0  0
   -0.7444    0.0531    1.8907 H   0  0  0  0  0  0  0  0  0  0  0  0
   -3.1783   -0.6619   -0.4180 H   0  0  0  0  0  0  0  0  0  0  0  0
   -0.1227   -0.4441   -1.9867 H   0  0  0  0  0  0  0  0  0  0  0  0
    0.5406   -1.7592   -0.8299 H   0  0  0  0  0  0  0  0  0  0  0  0
   -1.4206    1.4588    0.5512 H   0  0  0  0  0  0  0  0  0  0  0  0
   -1.0839    1.2444   -1.2845 H   0  0  0  0  0  0  0  0  0  0  0  0
  1  2  1  0
  2  3  1  0
  3  4  1  0
  4  5  1  0
  5  6  1  0
  5  7  1  0
  5  8  1  0
  7  3  1  0
  8  3  1  0
  1  9  1  0
  2 10  1  0
  2 11  1  0
  4 12  1  0
  4 13  1  0
  6 14  1  0
  7 15  1  0
  7 16  1  0
  8 17  1  0
  8 18  1  0
M  END
