
     RDKit          3D

 21 22  0  0  0  0  0  0  0  0999 V2000
    1.9840    1.1959   -0.6677 O   0  0  0  0  0  0  0  0  0  0  0  0
    2.0273   -0.1499   -0.3043 C   0  0  0  0  0  0  0  0  0  0  0  0
    0.6724   -0.7003   -0.0053 C   0  0  0  0  0  0  0  0  0  0  0  0
   -0.2594   -0.5936   -1.2284 C   0  0  0  0  0  0  0  0  0  0  0  0
   -1.5306   -0.3829   -0.4960 C   0  0  0  0  0  0  0  0  0  0  0  0
   -2.3053    0.7223   -0.1409 C   0  0  0  0  0  0  0  0  0  0  0  0
   -0.9747    0.8900    0.2665 C   0  0  0  0  0  0  0  0  0  0  0  0
   -0.0343    0.1110    1.0999 C   0  0  0  0  0  0  0  0  0  0  0  0
   -0.7101   -0.7734    1.9383 O   0  0  0  0  0  0  0  0  0  0  0  0
    2.9439    1.5053   -0.6398 H   0  0  0  0  0  0  0  0  0  0  0  0
    2.5040   -0.7755   -1.0526 H   0  0  0  0  0  0  0  0  0  0  0  0
    2.6248   -0.2077    0.6205 H   0  0  0  0  0  0  0  0  0  0  0  0
    0.7736   -1.7455    0.3352 H   0  0  0  0  0  0  0  0  0  0  0  0
   -0.2649   -1.5484   -1.7886 H   0  0  0  0  0  0  0  0  0  0  0  0
    0.0403    0.2409   -1.8835 H   0  0  0  0  0  0  0  0  0  0  0  0
   -1.6810   -1.3046    0.1555 H   0  0  0  0  0  0  0  0  0  0  0  0
   -2.7300    1.3781   -0.9501 H   0  0  0  0  0  0  0  0  0  0  0  0
   -3.0952    0.6222    0.6617 H   0  0  0  0  0  0  0  0  0  0  0  0
   -0.3652    1.6045   -0.3730 H   0  0  0  0  0  0  0  0  0  0  0  0
    0.6757    0.7592    1.6234 H   0  0  0  0  0  0  0  0  0  0  0  0
   -0.2952   -0.8474    2.8291 H   0  0  0  0  0  0  0  0  0  0  0  0
  1  2  1  0
  2  3  1  0
  3  4  1  0
  4  5  1  0
  5  6  1  0
  6  7  1  0
  7  8  1  0
  8  9  1  0
  8  3  1  0
  7  5  1  0
  1 10  1  0
  2 11  1  0
  2 12  1  0
  3 13  1  0
  4 14  1  0
  4 15  1  0
  5 16  1  0
  6 17  1  0
  6 18  1  0
  7 19  1  0
  8 20  1  0
  9 21  1  0
M  END
