
     RDKit          3D

 19 20  0  0  0  0  0  0  0  0999 V2000
    2.6249    0.4582    0.4810 O   0  0  0  0  0  0  0  0  0  0  0  0
    1.5864    0.3586   -0.4723 C   0  0  0  0  0  0  0  0  0  0  0  0
    0.3250    0.0531    0.2918 C   0  0  0  0  0  0  0  0  0  0  0  0
    0.3019   -1.2005    1.0976 C   0  0  0  0  0  0  0  0  0  0  0  0
   -1.0357   -1.4796    1.3806 O   0  0  0  0  0  0  0  0  0  0  0  0
   -1.7662   -1.0823    0.2794 C   0  0  0  0  0  0  0  0  0  0  0  0
   -1.0012    0.0555   -0.3736 C   0  0  0  0  0  0  0  0  0  0  0  0
   -0.6125    1.1353    0.6064 C   0  0  0  0  0  0  0  0  0  0  0  0
   -0.4865    2.3878    0.0436 O   0  0  0  0  0  0  0  0  0  0  0  0
    3.4941    0.1745    0.1016 H   0  0  0  0  0  0  0  0  0  0  0  0
    1.8027   -0.4181   -1.2300 H   0  0  0  0  0  0  0  0  0  0  0  0
    1.4523    1.3664   -0.9587 H   0  0  0  0  0  0  0  0  0  0  0  0
    0.9196   -1.1965    1.9942 H   0  0  0  0  0  0  0  0  0  0  0  0
    0.6490   -2.0342    0.4331 H   0  0  0  0  0  0  0  0  0  0  0  0
   -1.9803   -1.9038   -0.4307 H   0  0  0  0  0  0  0  0  0  0  0  0
   -2.7360   -0.6678    0.6666 H   0  0  0  0  0  0  0  0  0  0  0  0
   -1.1250    0.2697   -1.4333 H   0  0  0  0  0  0  0  0  0  0  0  0
   -1.1195    1.1619    1.6112 H   0  0  0  0  0  0  0  0  0  0  0  0
   -1.2930    2.5618   -0.5387 H   0  0  0  0  0  0  0  0  0  0  0  0
  1  2  1  0
  2  3  1  0
  3  4  1  0
  4  5  1  0
  5  6  1  0
  6  7  1  0
  7  8  1  0
  8  9  1  0
  7  3  1  0
  8  3  1  0
  1 10  1  0
  2 11  1  0
  2 12  1  0
  4 13  1  0
  4 14  1  0
  6 15  1  0
  6 16  1  0
  7 17  1  0
  8 18  1  0
  9 19  1  0
M  END
