
     RDKit          3D

 19 20  0  0  0  0  0  0  0  0999 V2000
   -2.9073   -0.5760    0.2744 O   0  0  0  0  0  0  0  0  0  0  0  0
   -2.0862    0.5553    0.3640 C   0  0  0  0  0  0  0  0  0  0  0  0
   -0.6726    0.0805    0.5417 C   0  0  0  0  0  0  0  0  0  0  0  0
   -0.0808   -0.7728   -0.5194 C   0  0  0  0  0  0  0  0  0  0  0  0
    1.0125   -1.6554   -0.0651 C   0  0  0  0  0  0  0  0  0  0  0  0
    2.0583   -0.9019    0.1578 C   0  0  0  0  0  0  0  0  0  0  0  0
    1.8203    0.5283   -0.1057 C   0  0  0  0  0  0  0  0  0  0  0  0
    0.3645    0.6282   -0.3382 C   0  0  0  0  0  0  0  0  0  0  0  0
   -0.0463    1.6022   -1.2640 O   0  0  0  0  0  0  0  0  0  0  0  0
   -2.4933   -1.2600    0.8634 H   0  0  0  0  0  0  0  0  0  0  0  0
   -2.4094    1.2653    1.1276 H   0  0  0  0  0  0  0  0  0  0  0  0
   -2.1823    1.0871   -0.6253 H   0  0  0  0  0  0  0  0  0  0  0  0
   -0.3898   -0.0941    1.5981 H   0  0  0  0  0  0  0  0  0  0  0  0
   -0.6212   -0.9844   -1.4529 H   0  0  0  0  0  0  0  0  0  0  0  0
    0.9464   -2.7063    0.0539 H   0  0  0  0  0  0  0  0  0  0  0  0
    3.0434   -1.2553    0.5089 H   0  0  0  0  0  0  0  0  0  0  0  0
    2.1956    1.1465    0.7337 H   0  0  0  0  0  0  0  0  0  0  0  0
    2.3383    0.8302   -1.0554 H   0  0  0  0  0  0  0  0  0  0  0  0
    0.1097    2.4825   -0.7975 H   0  0  0  0  0  0  0  0  0  0  0  0
  1  2  1  0
  2  3  1  0
  3  4  1  0
  4  5  1  0
  5  6  2  0
  6  7  1  0
  7  8  1  0
  8  9  1  0
  8  3  1  0
  8  4  1  0
  1 10  1  0
  2 11  1  0
  2 12  1  0
  3 13  1  0
  4 14  1  0
  5 15  1  0
  6 16  1  0
  7 17  1  0
  7 18  1  0
  9 19  1  0
M  END
