
     RDKit          3D

 19 21  0  0  0  0  0  0  0  0999 V2000
   -1.6894    1.2173   -1.2529 O   0  0  0  0  0  0  0  0  0  0  0  0
   -0.9480    1.4416   -0.0716 C   0  0  0  0  0  0  0  0  0  0  0  0
   -0.4718    0.1179    0.4672 C   0  0  0  0  0  0  0  0  0  0  0  0
   -1.4031   -0.9439    0.8538 C   0  0  0  0  0  0  0  0  0  0  0  0
   -0.4397   -1.0939   -0.3490 C   0  0  0  0  0  0  0  0  0  0  0  0
    1.0038   -1.2773   -0.0727 C   0  0  0  0  0  0  0  0  0  0  0  0
    2.0041   -0.2156   -0.2012 C   0  0  0  0  0  0  0  0  0  0  0  0
    1.9665    0.7086   -1.2459 O   0  0  0  0  0  0  0  0  0  0  0  0
    0.9683   -0.0760    0.8329 C   0  0  0  0  0  0  0  0  0  0  0  0
   -2.6329    1.1296   -0.9473 H   0  0  0  0  0  0  0  0  0  0  0  0
   -1.5680    1.9543    0.6835 H   0  0  0  0  0  0  0  0  0  0  0  0
   -0.0807    2.0751   -0.3267 H   0  0  0  0  0  0  0  0  0  0  0  0
   -1.1423   -1.5326    1.7635 H   0  0  0  0  0  0  0  0  0  0  0  0
   -2.4708   -0.8811    0.5647 H   0  0  0  0  0  0  0  0  0  0  0  0
   -0.8815   -1.2010   -1.3377 H   0  0  0  0  0  0  0  0  0  0  0  0
    1.3133   -2.2637    0.3146 H   0  0  0  0  0  0  0  0  0  0  0  0
    3.0222   -0.4453    0.1549 H   0  0  0  0  0  0  0  0  0  0  0  0
    2.2881    1.5697   -0.8503 H   0  0  0  0  0  0  0  0  0  0  0  0
    1.1619   -0.2837    1.9073 H   0  0  0  0  0  0  0  0  0  0  0  0
  1  2  1  0
  2  3  1  0
  3  4  1  0
  4  5  1  0
  5  6  1  0
  6  7  1  0
  7  8  1  0
  7  9  1  0
  5  3  1  0
  9  6  1  0
  9  3  1  0
  1 10  1  0
  2 11  1  0
  2 12  1  0
  4 13  1  0
  4 14  1  0
  5 15  1  0
  6 16  1  0
  7 17  1  0
  8 18  1  0
  9 19  1  0
M  END
