
     RDKit          3D

 19 20  0  0  0  0  0  0  0  0999 V2000
    3.2170    0.0351   -0.4949 O   0  0  0  0  0  0  0  0  0  0  0  0
    2.1879    0.6106    0.2137 C   0  0  0  0  0  0  0  0  0  0  0  0
    1.0671   -0.4223    0.3215 C   0  0  0  0  0  0  0  0  0  0  0  0
    0.2206   -0.5579   -0.9110 C   0  0  0  0  0  0  0  0  0  0  0  0
   -0.8349   -0.1912    0.0420 C   0  0  0  0  0  0  0  0  0  0  0  0
   -2.1218   -0.8365    0.2049 C   0  0  0  0  0  0  0  0  0  0  0  0
   -2.0648    0.5374   -0.3055 C   0  0  0  0  0  0  0  0  0  0  0  0
   -2.3616    1.6411    0.4917 O   0  0  0  0  0  0  0  0  0  0  0  0
    0.0126    0.1622    1.0455 O   0  0  0  0  0  0  0  0  0  0  0  0
    3.2296   -0.9571   -0.3908 H   0  0  0  0  0  0  0  0  0  0  0  0
    2.4453    0.8849    1.2526 H   0  0  0  0  0  0  0  0  0  0  0  0
    1.7489    1.4958   -0.3027 H   0  0  0  0  0  0  0  0  0  0  0  0
    1.4283   -1.3779    0.7059 H   0  0  0  0  0  0  0  0  0  0  0  0
    0.5150    0.2042   -1.6690 H   0  0  0  0  0  0  0  0  0  0  0  0
    0.1913   -1.5651   -1.3536 H   0  0  0  0  0  0  0  0  0  0  0  0
   -2.3889   -1.6581   -0.4962 H   0  0  0  0  0  0  0  0  0  0  0  0
   -2.4746   -0.9998    1.2611 H   0  0  0  0  0  0  0  0  0  0  0  0
   -2.3788    0.6829   -1.3643 H   0  0  0  0  0  0  0  0  0  0  0  0
   -1.6381    2.3118    0.2946 H   0  0  0  0  0  0  0  0  0  0  0  0
  1  2  1  0
  2  3  1  0
  3  4  1  0
  4  5  1  0
  5  6  1  0
  6  7  1  0
  7  8  1  0
  5  9  1  0
  9  3  1  0
  7  5  1  0
  1 10  1  0
  2 11  1  0
  2 12  1  0
  3 13  1  0
  4 14  1  0
  4 15  1  0
  6 16  1  0
  6 17  1  0
  7 18  1  0
  8 19  1  0
M  END
