
     RDKit          3D

 17 18  0  0  0  0  0  0  0  0999 V2000
   -2.8797    0.2233    0.6964 O   0  0  0  0  0  0  0  0  0  0  0  0
   -1.7764   -0.5488    0.3687 C   0  0  0  0  0  0  0  0  0  0  0  0
   -0.7000    0.2678   -0.2893 C   0  0  0  0  0  0  0  0  0  0  0  0
   -0.1934    1.3120    0.4641 O   0  0  0  0  0  0  0  0  0  0  0  0
    1.0134    1.1068   -0.2154 C   0  0  0  0  0  0  0  0  0  0  0  0
    1.8264   -0.0037    0.3191 C   0  0  0  0  0  0  0  0  0  0  0  0
    1.8762   -0.0638    1.7201 O   0  0  0  0  0  0  0  0  0  0  0  0
    0.6325   -0.3749   -0.4310 C   0  0  0  0  0  0  0  0  0  0  0  0
    0.8696   -0.8872   -1.7278 O   0  0  0  0  0  0  0  0  0  0  0  0
   -2.7041    1.1903    0.6904 H   0  0  0  0  0  0  0  0  0  0  0  0
   -1.4394   -1.0444    1.2986 H   0  0  0  0  0  0  0  0  0  0  0  0
   -2.1327   -1.3452   -0.3156 H   0  0  0  0  0  0  0  0  0  0  0  0
   -1.0876    0.6780   -1.2518 H   0  0  0  0  0  0  0  0  0  0  0  0
    1.2341    1.6427   -1.1322 H   0  0  0  0  0  0  0  0  0  0  0  0
    2.8279   -0.1583   -0.1396 H   0  0  0  0  0  0  0  0  0  0  0  0
    2.5929   -0.6763    1.9986 H   0  0  0  0  0  0  0  0  0  0  0  0
    0.0402   -1.3181   -2.0532 H   0  0  0  0  0  0  0  0  0  0  0  0
  1  2  1  0
  2  3  1  0
  3  4  1  0
  4  5  1  0
  5  6  1  0
  6  7  1  0
  6  8  1  0
  8  9  1  0
  8  3  1  0
  8  5  1  0
  1 10  1  0
  2 11  1  0
  2 12  1  0
  3 13  1  0
  5 14  1  0
  6 15  1  0
  7 16  1  0
  9 17  1  0
M  END
