
     RDKit          3D

 19 19  0  0  0  0  0  0  0  0999 V2000
   -2.8597    0.7487    0.2507 O   0  0  0  0  0  0  0  0  0  0  0  0
   -1.9577   -0.2814    0.3797 C   0  0  0  0  0  0  0  0  0  0  0  0
   -0.5767    0.0805   -0.1539 C   0  0  0  0  0  0  0  0  0  0  0  0
   -0.1384    1.1790    0.5894 O   0  0  0  0  0  0  0  0  0  0  0  0
    1.0325    1.6468   -0.0009 C   0  0  0  0  0  0  0  0  0  0  0  0
    2.0691    0.5836    0.1658 C   0  0  0  0  0  0  0  0  0  0  0  0
    1.7490   -0.6810    0.2452 C   0  0  0  0  0  0  0  0  0  0  0  0
    0.3247   -1.1003    0.1707 C   0  0  0  0  0  0  0  0  0  0  0  0
    0.1139   -2.1744   -0.6652 O   0  0  0  0  0  0  0  0  0  0  0  0
   -3.0319    1.0504   -0.6547 H   0  0  0  0  0  0  0  0  0  0  0  0
   -2.3192   -1.2374   -0.0709 H   0  0  0  0  0  0  0  0  0  0  0  0
   -1.8299   -0.4842    1.4682 H   0  0  0  0  0  0  0  0  0  0  0  0
   -0.5771    0.2676   -1.2326 H   0  0  0  0  0  0  0  0  0  0  0  0
    1.3348    2.6061    0.4273 H   0  0  0  0  0  0  0  0  0  0  0  0
    0.8398    1.7051   -1.1062 H   0  0  0  0  0  0  0  0  0  0  0  0
    3.1096    0.9082    0.2188 H   0  0  0  0  0  0  0  0  0  0  0  0
    2.4859   -1.4672    0.3662 H   0  0  0  0  0  0  0  0  0  0  0  0
    0.0356   -1.4118    1.2145 H   0  0  0  0  0  0  0  0  0  0  0  0
    0.1955   -1.9383   -1.6120 H   0  0  0  0  0  0  0  0  0  0  0  0
  1  2  1  0
  2  3  1  0
  3  4  1  0
  4  5  1  0
  5  6  1  0
  6  7  2  0
  7  8  1  0
  8  9  1  0
  8  3  1  0
  1 10  1  0
  2 11  1  0
  2 12  1  0
  3 13  1  0
  5 14  1  0
  5 15  1  0
  6 16  1  0
  7 17  1  0
  8 18  1  0
  9 19  1  0
M  END
