
     RDKit          3D

 17 19  0  0  0  0  0  0  0  0999 V2000
    2.5806    0.4602    0.3611 O   0  0  0  0  0  0  0  0  0  0  0  0
    1.3658    0.9912   -0.0286 C   0  0  0  0  0  0  0  0  0  0  0  0
    0.4820   -0.0471   -0.6883 C   0  0  0  0  0  0  0  0  0  0  0  0
   -0.8075    0.6282   -1.0723 C   0  0  0  0  0  0  0  0  0  0  0  0
   -1.3531    1.3906   -0.0145 O   0  0  0  0  0  0  0  0  0  0  0  0
   -1.8562    0.1311   -0.2755 C   0  0  0  0  0  0  0  0  0  0  0  0
   -1.3014   -1.0567    0.4891 C   0  0  0  0  0  0  0  0  0  0  0  0
   -0.4143   -0.7807    1.5238 O   0  0  0  0  0  0  0  0  0  0  0  0
    0.1285   -1.1375    0.3034 C   0  0  0  0  0  0  0  0  0  0  0  0
    2.9531   -0.1979   -0.2930 H   0  0  0  0  0  0  0  0  0  0  0  0
    1.4600    1.8539   -0.7095 H   0  0  0  0  0  0  0  0  0  0  0  0
    0.8337    1.2832    0.9208 H   0  0  0  0  0  0  0  0  0  0  0  0
    0.9764   -0.5427   -1.5476 H   0  0  0  0  0  0  0  0  0  0  0  0
   -0.9141    1.0416   -2.0885 H   0  0  0  0  0  0  0  0  0  0  0  0
   -2.9168    0.0308   -0.6346 H   0  0  0  0  0  0  0  0  0  0  0  0
   -1.9047   -1.9654    0.5001 H   0  0  0  0  0  0  0  0  0  0  0  0
    0.6879   -2.0827    0.2729 H   0  0  0  0  0  0  0  0  0  0  0  0
  1  2  1  0
  2  3  1  0
  3  4  1  0
  4  5  1  0
  5  6  1  0
  6  7  1  0
  7  8  1  0
  8  9  1  0
  9  3  1  0
  6  4  1  0
  9  7  1  0
  1 10  1  0
  2 11  1  0
  2 12  1  0
  3 13  1  0
  4 14  1  0
  6 15  1  0
  7 16  1  0
  9 17  1  0
M  END
