
     RDKit          3D

 21 22  0  0  0  0  0  0  0  0999 V2000
   -2.0708    1.4186   -0.4213 O   0  0  0  0  0  0  0  0  0  0  0  0
   -1.1103    0.9826    0.4874 C   0  0  0  0  0  0  0  0  0  0  0  0
   -0.5697   -0.3974    0.1341 C   0  0  0  0  0  0  0  0  0  0  0  0
    0.4490   -0.7724    1.1500 C   0  0  0  0  0  0  0  0  0  0  0  0
    1.5085    0.3002    0.8045 C   0  0  0  0  0  0  0  0  0  0  0  0
    1.2180    0.6661   -0.6578 C   0  0  0  0  0  0  0  0  0  0  0  0
    0.4384   -0.4992   -1.0637 C   0  0  0  0  0  0  0  0  0  0  0  0
   -0.9127   -0.8693   -1.1403 C   0  0  0  0  0  0  0  0  0  0  0  0
   -1.2994   -2.2142   -1.2609 O   0  0  0  0  0  0  0  0  0  0  0  0
   -1.8746    2.3825   -0.5873 H   0  0  0  0  0  0  0  0  0  0  0  0
   -0.3825    1.7112    0.8003 H   0  0  0  0  0  0  0  0  0  0  0  0
   -1.7205    0.7684    1.4246 H   0  0  0  0  0  0  0  0  0  0  0  0
    0.0669   -0.5912    2.1763 H   0  0  0  0  0  0  0  0  0  0  0  0
    0.8522   -1.7765    1.0799 H   0  0  0  0  0  0  0  0  0  0  0  0
    2.4859   -0.2384    0.8587 H   0  0  0  0  0  0  0  0  0  0  0  0
    1.4571    1.1559    1.4744 H   0  0  0  0  0  0  0  0  0  0  0  0
    0.8066    1.6525   -0.7978 H   0  0  0  0  0  0  0  0  0  0  0  0
    2.2111    0.6723   -1.1978 H   0  0  0  0  0  0  0  0  0  0  0  0
    1.1354   -1.4043   -1.0402 H   0  0  0  0  0  0  0  0  0  0  0  0
   -1.5816   -0.2477   -1.8069 H   0  0  0  0  0  0  0  0  0  0  0  0
   -1.1070   -2.6994   -0.4162 H   0  0  0  0  0  0  0  0  0  0  0  0
  1  2  1  0
  2  3  1  0
  3  4  1  0
  4  5  1  0
  5  6  1  0
  6  7  1  0
  7  8  1  0
  8  9  1  0
  7  3  1  0
  8  3  1  0
  1 10  1  0
  2 11  1  0
  2 12  1  0
  4 13  1  0
  4 14  1  0
  5 15  1  0
  5 16  1  0
  6 17  1  0
  6 18  1  0
  7 19  1  0
  8 20  1  0
  9 21  1  0
M  END
