
     RDKit          3D

 21 22  0  0  0  0  0  0  0  0999 V2000
    2.0455    0.9471    1.3910 O   0  0  0  0  0  0  0  0  0  0  0  0
    1.8619    0.1929    0.2350 C   0  0  0  0  0  0  0  0  0  0  0  0
    1.0994   -1.0587    0.5128 C   0  0  0  0  0  0  0  0  0  0  0  0
    0.8670   -1.9237   -0.6867 C   0  0  0  0  0  0  0  0  0  0  0  0
   -0.2792   -1.3185    0.1203 C   0  0  0  0  0  0  0  0  0  0  0  0
   -1.1437   -0.3784   -0.6622 C   0  0  0  0  0  0  0  0  0  0  0  0
   -1.3344    0.9287    0.0501 C   0  0  0  0  0  0  0  0  0  0  0  0
   -2.1766    1.9957   -0.5927 C   0  0  0  0  0  0  0  0  0  0  0  0
   -2.6534    1.2344    0.4392 O   0  0  0  0  0  0  0  0  0  0  0  0
    2.5500    1.7670    1.2275 H   0  0  0  0  0  0  0  0  0  0  0  0
    1.3858    0.7652   -0.5768 H   0  0  0  0  0  0  0  0  0  0  0  0
    2.8867   -0.1080   -0.1029 H   0  0  0  0  0  0  0  0  0  0  0  0
    1.4447   -1.5616    1.4654 H   0  0  0  0  0  0  0  0  0  0  0  0
    1.0135   -3.0177   -0.6386 H   0  0  0  0  0  0  0  0  0  0  0  0
    1.0701   -1.5042   -1.6922 H   0  0  0  0  0  0  0  0  0  0  0  0
   -0.8479   -2.0742    0.7138 H   0  0  0  0  0  0  0  0  0  0  0  0
   -2.1421   -0.8442   -0.7918 H   0  0  0  0  0  0  0  0  0  0  0  0
   -0.7044   -0.1244   -1.6546 H   0  0  0  0  0  0  0  0  0  0  0  0
   -0.6192    1.2318    0.8435 H   0  0  0  0  0  0  0  0  0  0  0  0
   -1.7946    3.0234   -0.4308 H   0  0  0  0  0  0  0  0  0  0  0  0
   -2.5291    1.8278   -1.6358 H   0  0  0  0  0  0  0  0  0  0  0  0
  1  2  1  0
  2  3  1  0
  3  4  1  0
  4  5  1  0
  5  6  1  0
  6  7  1  0
  7  8  1  0
  8  9  1  0
  5  3  1  0
  9  7  1  0
  1 10  1  0
  2 11  1  0
  2 12  1  0
  3 13  1  0
  4 14  1  0
  4 15  1  0
  5 16  1  0
  6 17  1  0
  6 18  1  0
  7 19  1  0
  8 20  1  0
  8 21  1  0
M  END
