
     RDKit          3D

 17 20  0  0  0  0  0  0  0  0999 V2000
    2.5001   -0.6036    0.4349 O   0  0  0  0  0  0  0  0  0  0  0  0
    1.5868    0.4359    0.7276 C   0  0  0  0  0  0  0  0  0  0  0  0
    0.2699    0.0736    0.2915 C   0  0  0  0  0  0  0  0  0  0  0  0
   -0.5667   -1.0588    0.6936 C   0  0  0  0  0  0  0  0  0  0  0  0
   -1.0255   -1.2569   -0.6411 C   0  0  0  0  0  0  0  0  0  0  0  0
   -1.7759   -0.2791    0.0683 C   0  0  0  0  0  0  0  0  0  0  0  0
   -0.8180    0.7800   -0.2621 C   0  0  0  0  0  0  0  0  0  0  0  0
   -1.0309    2.0121   -0.6676 O   0  0  0  0  0  0  0  0  0  0  0  0
   -0.0931   -0.1951   -1.0942 C   0  0  0  0  0  0  0  0  0  0  0  0
    2.5981   -0.6607   -0.5421 H   0  0  0  0  0  0  0  0  0  0  0  0
    1.6911    0.6532    1.8051 H   0  0  0  0  0  0  0  0  0  0  0  0
    1.9542    1.3350    0.1833 H   0  0  0  0  0  0  0  0  0  0  0  0
   -0.6975   -1.5321    1.6136 H   0  0  0  0  0  0  0  0  0  0  0  0
   -1.3037   -2.1249   -1.1793 H   0  0  0  0  0  0  0  0  0  0  0  0
   -2.6865   -0.2474    0.5749 H   0  0  0  0  0  0  0  0  0  0  0  0
   -1.0162    2.7475   -0.0162 H   0  0  0  0  0  0  0  0  0  0  0  0
    0.4139   -0.0788   -1.9902 H   0  0  0  0  0  0  0  0  0  0  0  0
  1  2  1  0
  2  3  1  0
  3  4  1  0
  4  5  1  0
  5  6  1  0
  6  7  1  0
  7  8  1  0
  7  9  1  0
  7  3  1  0
  9  3  1  0
  6  4  1  0
  9  5  1  0
  1 10  1  0
  2 11  1  0
  2 12  1  0
  4 13  1  0
  5 14  1  0
  6 15  1  0
  8 16  1  0
  9 17  1  0
M  END
