
     RDKit          3D

 21 22  0  0  0  0  0  0  0  0999 V2000
    2.9098    1.5909    0.3018 O   0  0  0  0  0  0  0  0  0  0  0  0
    2.4390    0.3254    0.0243 C   0  0  0  0  0  0  0  0  0  0  0  0
    1.1830   -0.0073    0.8158 C   0  0  0  0  0  0  0  0  0  0  0  0
    0.3818   -1.1553    0.2549 C   0  0  0  0  0  0  0  0  0  0  0  0
   -0.5943   -0.0923    0.0495 C   0  0  0  0  0  0  0  0  0  0  0  0
   -1.1964    0.0086   -1.3131 C   0  0  0  0  0  0  0  0  0  0  0  0
   -2.5174    0.3249   -0.6514 C   0  0  0  0  0  0  0  0  0  0  0  0
   -1.9383   -0.1630    0.6817 C   0  0  0  0  0  0  0  0  0  0  0  0
    0.1964    0.9159    0.4875 O   0  0  0  0  0  0  0  0  0  0  0  0
    3.8688    1.7092    0.2328 H   0  0  0  0  0  0  0  0  0  0  0  0
    2.2492    0.2722   -1.0668 H   0  0  0  0  0  0  0  0  0  0  0  0
    3.2152   -0.4151    0.3561 H   0  0  0  0  0  0  0  0  0  0  0  0
    1.3583   -0.1774    1.8899 H   0  0  0  0  0  0  0  0  0  0  0  0
    0.1560   -1.9772    0.9331 H   0  0  0  0  0  0  0  0  0  0  0  0
    0.8107   -1.5419   -0.7029 H   0  0  0  0  0  0  0  0  0  0  0  0
   -0.7986    0.7495   -2.0010 H   0  0  0  0  0  0  0  0  0  0  0  0
   -1.2668   -0.9989   -1.7878 H   0  0  0  0  0  0  0  0  0  0  0  0
   -2.6947    1.4242   -0.6842 H   0  0  0  0  0  0  0  0  0  0  0  0
   -3.3832   -0.2361   -0.9957 H   0  0  0  0  0  0  0  0  0  0  0  0
   -2.0739    0.5983    1.4747 H   0  0  0  0  0  0  0  0  0  0  0  0
   -2.3047   -1.1545    0.9958 H   0  0  0  0  0  0  0  0  0  0  0  0
  1  2  1  0
  2  3  1  0
  3  4  1  0
  4  5  1  0
  5  6  1  0
  6  7  1  0
  7  8  1  0
  5  9  1  0
  9  3  1  0
  8  5  1  0
  1 10  1  0
  2 11  1  0
  2 12  1  0
  3 13  1  0
  4 14  1  0
  4 15  1  0
  6 16  1  0
  6 17  1  0
  7 18  1  0
  7 19  1  0
  8 20  1  0
  8 21  1  0
M  END
