
     RDKit          3D

 19 20  0  0  0  0  0  0  0  0999 V2000
    2.9785   -0.2078    0.2364 O   0  0  0  0  0  0  0  0  0  0  0  0
    1.9335    0.3623   -0.4935 C   0  0  0  0  0  0  0  0  0  0  0  0
    0.6707    0.2456    0.3096 C   0  0  0  0  0  0  0  0  0  0  0  0
   -0.5470    0.8274   -0.3680 C   0  0  0  0  0  0  0  0  0  0  0  0
   -0.9688    2.0271    0.1426 O   0  0  0  0  0  0  0  0  0  0  0  0
   -1.3689   -0.3802   -0.0793 C   0  0  0  0  0  0  0  0  0  0  0  0
   -2.1071   -0.9302   -1.1338 O   0  0  0  0  0  0  0  0  0  0  0  0
   -1.2131   -1.2074    1.1164 C   0  0  0  0  0  0  0  0  0  0  0  0
   -0.0230   -1.0977    0.2439 C   0  0  0  0  0  0  0  0  0  0  0  0
    3.1490    0.4261    0.9984 H   0  0  0  0  0  0  0  0  0  0  0  0
    2.1122    1.4598   -0.6509 H   0  0  0  0  0  0  0  0  0  0  0  0
    1.8257   -0.0776   -1.4929 H   0  0  0  0  0  0  0  0  0  0  0  0
    0.8148    0.5369    1.3699 H   0  0  0  0  0  0  0  0  0  0  0  0
   -0.3440    0.8971   -1.4683 H   0  0  0  0  0  0  0  0  0  0  0  0
   -1.3617    2.5651   -0.5901 H   0  0  0  0  0  0  0  0  0  0  0  0
   -3.0558   -0.6387   -0.9776 H   0  0  0  0  0  0  0  0  0  0  0  0
   -1.0903   -0.7598    2.1409 H   0  0  0  0  0  0  0  0  0  0  0  0
   -1.7082   -2.1786    1.1395 H   0  0  0  0  0  0  0  0  0  0  0  0
    0.3035   -1.8694   -0.4431 H   0  0  0  0  0  0  0  0  0  0  0  0
  1  2  1  0
  2  3  1  0
  3  4  1  0
  4  5  1  0
  4  6  1  0
  6  7  1  0
  6  8  1  0
  8  9  1  0
  9  3  1  0
  9  6  1  0
  1 10  1  0
  2 11  1  0
  2 12  1  0
  3 13  1  0
  4 14  1  0
  5 15  1  0
  7 16  1  0
  8 17  1  0
  8 18  1  0
  9 19  1  0
M  END
