
     RDKit          3D

 18 19  0  0  0  0  0  0  0  0999 V2000
    2.0745    0.0037   -1.0106 O   0  0  0  0  0  0  0  0  0  0  0  0
    1.8107   -0.2575    0.3265 C   0  0  0  0  0  0  0  0  0  0  0  0
    0.3249   -0.2482    0.5902 C   0  0  0  0  0  0  0  0  0  0  0  0
   -0.3709    1.0351    0.2853 C   0  0  0  0  0  0  0  0  0  0  0  0
   -0.7267    1.8185    1.3712 O   0  0  0  0  0  0  0  0  0  0  0  0
   -1.4455    0.3597   -0.4633 C   0  0  0  0  0  0  0  0  0  0  0  0
   -1.9355   -1.0014   -0.2042 C   0  0  0  0  0  0  0  0  0  0  0  0
   -0.5105   -0.8736   -0.5315 C   0  0  0  0  0  0  0  0  0  0  0  0
    2.7613   -0.5939   -1.3828 H   0  0  0  0  0  0  0  0  0  0  0  0
    2.2197   -1.2636    0.5440 H   0  0  0  0  0  0  0  0  0  0  0  0
    2.2780    0.4494    1.0166 H   0  0  0  0  0  0  0  0  0  0  0  0
    0.0801   -0.7514    1.5293 H   0  0  0  0  0  0  0  0  0  0  0  0
    0.2787    1.6567   -0.3976 H   0  0  0  0  0  0  0  0  0  0  0  0
   -0.2892    2.7053    1.3844 H   0  0  0  0  0  0  0  0  0  0  0  0
   -1.7357    0.8181   -1.4338 H   0  0  0  0  0  0  0  0  0  0  0  0
   -2.5796   -1.4694   -0.9556 H   0  0  0  0  0  0  0  0  0  0  0  0
   -2.1620   -1.3575    0.8413 H   0  0  0  0  0  0  0  0  0  0  0  0
   -0.0722   -1.0299   -1.5095 H   0  0  0  0  0  0  0  0  0  0  0  0
  1  2  1  0
  2  3  1  0
  3  4  1  0
  4  5  1  0
  4  6  1  0
  6  7  1  0
  7  8  1  0
  8  3  1  0
  8  6  1  0
  1  9  1  0
  2 10  1  0
  2 11  1  0
  3 12  1  0
  4 13  1  0
  5 14  1  0
  6 15  1  0
  7 16  1  0
  7 17  1  0
  8 18  1  0
M  END
