
     RDKit          3D

 19 21  0  0  0  0  0  0  0  0999 V2000
    2.5844    0.1548   -1.0139 O   0  0  0  0  0  0  0  0  0  0  0  0
    1.7892   -0.8545   -0.4679 C   0  0  0  0  0  0  0  0  0  0  0  0
    0.8231   -0.2074    0.4790 C   0  0  0  0  0  0  0  0  0  0  0  0
   -0.0347   -1.0818    1.1004 O   0  0  0  0  0  0  0  0  0  0  0  0
   -1.2294   -0.4095    1.3720 C   0  0  0  0  0  0  0  0  0  0  0  0
   -1.9945   -0.0739    0.1327 C   0  0  0  0  0  0  0  0  0  0  0  0
   -1.1427    0.1347   -1.1018 C   0  0  0  0  0  0  0  0  0  0  0  0
   -0.0803    0.7972   -0.2284 C   0  0  0  0  0  0  0  0  0  0  0  0
   -1.1472    0.9352    0.8191 C   0  0  0  0  0  0  0  0  0  0  0  0
    3.5447   -0.0504   -0.9350 H   0  0  0  0  0  0  0  0  0  0  0  0
    2.4646   -1.5063    0.1198 H   0  0  0  0  0  0  0  0  0  0  0  0
    1.2971   -1.3817   -1.3003 H   0  0  0  0  0  0  0  0  0  0  0  0
    1.3675    0.3456    1.2711 H   0  0  0  0  0  0  0  0  0  0  0  0
   -1.7330   -0.5513    2.3378 H   0  0  0  0  0  0  0  0  0  0  0  0
   -3.0579    0.1264    0.1276 H   0  0  0  0  0  0  0  0  0  0  0  0
   -1.5757    0.8353   -1.8232 H   0  0  0  0  0  0  0  0  0  0  0  0
   -0.7785   -0.8259   -1.5008 H   0  0  0  0  0  0  0  0  0  0  0  0
    0.3854    1.6879   -0.6169 H   0  0  0  0  0  0  0  0  0  0  0  0
   -1.4819    1.8561    1.2287 H   0  0  0  0  0  0  0  0  0  0  0  0
  1  2  1  0
  2  3  1  0
  3  4  1  0
  4  5  1  0
  5  6  1  0
  6  7  1  0
  7  8  1  0
  8  9  1  0
  8  3  1  0
  9  5  1  0
  9  6  1  0
  1 10  1  0
  2 11  1  0
  2 12  1  0
  3 13  1  0
  5 14  1  0
  6 15  1  0
  7 16  1  0
  7 17  1  0
  8 18  1  0
  9 19  1  0
M  END
