
     RDKit          3D

 16 16  0  0  0  0  0  0  0  0999 V2000
   -1.6940    0.1620   -1.0291 O   0  0  0  0  0  0  0  0  0  0  0  0
   -1.4575   -0.3631    0.2269 C   0  0  0  0  0  0  0  0  0  0  0  0
    0.0542   -0.3650    0.4562 C   0  0  0  0  0  0  0  0  0  0  0  0
    0.4146   -0.8722    1.6887 O   0  0  0  0  0  0  0  0  0  0  0  0
    0.8319    0.8270    0.0060 C   0  0  0  0  0  0  0  0  0  0  0  0
    0.0749    1.8639   -0.5125 O   0  0  0  0  0  0  0  0  0  0  0  0
    0.9144   -0.4777   -0.7353 C   0  0  0  0  0  0  0  0  0  0  0  0
    2.0925   -1.1909   -0.7337 O   0  0  0  0  0  0  0  0  0  0  0  0
   -2.6679    0.1183   -1.2474 H   0  0  0  0  0  0  0  0  0  0  0  0
   -1.7709   -1.4335    0.2114 H   0  0  0  0  0  0  0  0  0  0  0  0
   -1.9748    0.2102    1.0189 H   0  0  0  0  0  0  0  0  0  0  0  0
   -0.1156   -0.3614    2.3782 H   0  0  0  0  0  0  0  0  0  0  0  0
    1.7367    1.1316    0.5852 H   0  0  0  0  0  0  0  0  0  0  0  0
    0.6919    2.5977   -0.7319 H   0  0  0  0  0  0  0  0  0  0  0  0
    0.4107   -0.4522   -1.7279 H   0  0  0  0  0  0  0  0  0  0  0  0
    2.4589   -1.3949    0.1465 H   0  0  0  0  0  0  0  0  0  0  0  0
  1  2  1  0
  2  3  1  0
  3  4  1  0
  3  5  1  0
  5  6  1  0
  5  7  1  0
  7  8  1  0
  7  3  1  0
  1  9  1  0
  2 10  1  0
  2 11  1  0
  4 12  1  0
  5 13  1  0
  6 14  1  0
  7 15  1  0
  8 16  1  0
M  END
