
     RDKit          3D

 21 22  0  0  0  0  0  0  0  0999 V2000
    2.7054   -0.5499    0.6663 O   0  0  0  0  0  0  0  0  0  0  0  0
    2.3536   -0.0183   -0.5724 C   0  0  0  0  0  0  0  0  0  0  0  0
    0.8760    0.2527   -0.5596 C   0  0  0  0  0  0  0  0  0  0  0  0
    0.4736    1.2143    0.4969 C   0  0  0  0  0  0  0  0  0  0  0  0
   -0.8277    1.3626    0.6944 C   0  0  0  0  0  0  0  0  0  0  0  0
   -1.7981    0.5786   -0.1307 C   0  0  0  0  0  0  0  0  0  0  0  0
   -2.3063   -0.6637    0.5568 C   0  0  0  0  0  0  0  0  0  0  0  0
   -1.3253   -0.7447   -0.5444 C   0  0  0  0  0  0  0  0  0  0  0  0
    0.1259   -1.0357   -0.2866 C   0  0  0  0  0  0  0  0  0  0  0  0
    2.4897    0.0746    1.4092 H   0  0  0  0  0  0  0  0  0  0  0  0
    2.9591    0.8491   -0.8417 H   0  0  0  0  0  0  0  0  0  0  0  0
    2.5211   -0.8372   -1.3155 H   0  0  0  0  0  0  0  0  0  0  0  0
    0.5148    0.6828   -1.5261 H   0  0  0  0  0  0  0  0  0  0  0  0
    1.1794    1.7764    1.0881 H   0  0  0  0  0  0  0  0  0  0  0  0
   -1.2478    2.0354    1.4375 H   0  0  0  0  0  0  0  0  0  0  0  0
   -2.4592    1.1221   -0.8256 H   0  0  0  0  0  0  0  0  0  0  0  0
   -3.3579   -0.9997    0.3317 H   0  0  0  0  0  0  0  0  0  0  0  0
   -2.0385   -0.8582    1.6105 H   0  0  0  0  0  0  0  0  0  0  0  0
   -1.6910   -1.1436   -1.5140 H   0  0  0  0  0  0  0  0  0  0  0  0
    0.5359   -1.8097   -0.9561 H   0  0  0  0  0  0  0  0  0  0  0  0
    0.3173   -1.2877    0.7814 H   0  0  0  0  0  0  0  0  0  0  0  0
  1  2  1  0
  2  3  1  0
  3  4  1  0
  4  5  2  0
  5  6  1  0
  6  7  1  0
  7  8  1  0
  8  9  1  0
  9  3  1  0
  8  6  1  0
  1 10  1  0
  2 11  1  0
  2 12  1  0
  3 13  1  0
  4 14  1  0
  5 15  1  0
  6 16  1  0
  7 17  1  0
  7 18  1  0
  8 19  1  0
  9 20  1  0
  9 21  1  0
M  END
