
     RDKit          3D

 19 20  0  0  0  0  0  0  0  0999 V2000
   -2.4025   -0.8818   -0.7766 O   0  0  0  0  0  0  0  0  0  0  0  0
   -1.7218   -0.4206    0.3570 C   0  0  0  0  0  0  0  0  0  0  0  0
   -0.5137    0.3907   -0.0825 C   0  0  0  0  0  0  0  0  0  0  0  0
   -0.8872    1.4796   -0.8470 O   0  0  0  0  0  0  0  0  0  0  0  0
    0.3488   -0.5195   -0.9356 C   0  0  0  0  0  0  0  0  0  0  0  0
    1.7396   -0.4417   -0.3991 C   0  0  0  0  0  0  0  0  0  0  0  0
    1.5806    0.0897    1.0077 C   0  0  0  0  0  0  0  0  0  0  0  0
    1.4354    1.4643    1.0700 O   0  0  0  0  0  0  0  0  0  0  0  0
    0.2735    0.7337    1.1355 C   0  0  0  0  0  0  0  0  0  0  0  0
   -2.0195   -0.4840   -1.6027 H   0  0  0  0  0  0  0  0  0  0  0  0
   -2.3988    0.1952    1.0051 H   0  0  0  0  0  0  0  0  0  0  0  0
   -1.3506   -1.3222    0.8857 H   0  0  0  0  0  0  0  0  0  0  0  0
   -0.7039    2.3504   -0.4397 H   0  0  0  0  0  0  0  0  0  0  0  0
    0.2863   -0.2242   -2.0164 H   0  0  0  0  0  0  0  0  0  0  0  0
   -0.0019   -1.5881   -0.8821 H   0  0  0  0  0  0  0  0  0  0  0  0
    2.3058   -1.3720   -0.4552 H   0  0  0  0  0  0  0  0  0  0  0  0
    2.2932    0.3094   -1.0192 H   0  0  0  0  0  0  0  0  0  0  0  0
    1.9631   -0.4839    1.8610 H   0  0  0  0  0  0  0  0  0  0  0  0
   -0.2265    0.7250    2.1339 H   0  0  0  0  0  0  0  0  0  0  0  0
  1  2  1  0
  2  3  1  0
  3  4  1  0
  3  5  1  0
  5  6  1  0
  6  7  1  0
  7  8  1  0
  8  9  1  0
  9  3  1  0
  9  7  1  0
  1 10  1  0
  2 11  1  0
  2 12  1  0
  4 13  1  0
  5 14  1  0
  5 15  1  0
  6 16  1  0
  6 17  1  0
  7 18  1  0
  9 19  1  0
M  END
