
     RDKit          3D

 21 22  0  0  0  0  0  0  0  0999 V2000
    2.4927    0.2130   -0.9974 O   0  0  0  0  0  0  0  0  0  0  0  0
    1.8145   -0.5760   -0.0707 C   0  0  0  0  0  0  0  0  0  0  0  0
    0.4775   -0.0416    0.1296 C   0  0  0  0  0  0  0  0  0  0  0  0
   -0.4094   -0.7648    1.1028 C   0  0  0  0  0  0  0  0  0  0  0  0
   -1.8458   -0.3942    0.6986 C   0  0  0  0  0  0  0  0  0  0  0  0
   -1.5886    0.6000   -0.4138 C   0  0  0  0  0  0  0  0  0  0  0  0
   -0.4210   -0.1148   -1.1208 C   0  0  0  0  0  0  0  0  0  0  0  0
   -1.0043    1.7177    0.1665 O   0  0  0  0  0  0  0  0  0  0  0  0
    0.3537    1.4222    0.3893 C   0  0  0  0  0  0  0  0  0  0  0  0
    2.8010   -0.2718   -1.7882 H   0  0  0  0  0  0  0  0  0  0  0  0
    2.3574   -0.6755    0.8905 H   0  0  0  0  0  0  0  0  0  0  0  0
    1.7625   -1.5989   -0.5422 H   0  0  0  0  0  0  0  0  0  0  0  0
   -0.2493   -0.3103    2.1063 H   0  0  0  0  0  0  0  0  0  0  0  0
   -0.2659   -1.8583    1.0950 H   0  0  0  0  0  0  0  0  0  0  0  0
   -2.3132   -1.2907    0.2384 H   0  0  0  0  0  0  0  0  0  0  0  0
   -2.4047    0.0233    1.5321 H   0  0  0  0  0  0  0  0  0  0  0  0
   -2.4206    0.7918   -1.0610 H   0  0  0  0  0  0  0  0  0  0  0  0
   -0.0688    0.5326   -1.9124 H   0  0  0  0  0  0  0  0  0  0  0  0
   -0.6658   -1.1374   -1.3877 H   0  0  0  0  0  0  0  0  0  0  0  0
    0.8960    1.9842   -0.4280 H   0  0  0  0  0  0  0  0  0  0  0  0
    0.7020    1.7496    1.3730 H   0  0  0  0  0  0  0  0  0  0  0  0
  1  2  1  0
  2  3  1  0
  3  4  1  0
  4  5  1  0
  5  6  1  0
  6  7  1  0
  6  8  1  0
  8  9  1  0
  7  3  1  0
  9  3  1  0
  1 10  1  0
  2 11  1  0
  2 12  1  0
  4 13  1  0
  4 14  1  0
  5 15  1  0
  5 16  1  0
  6 17  1  0
  7 18  1  0
  7 19  1  0
  9 20  1  0
  9 21  1  0
M  END
