
     RDKit          3D

 17 19  0  0  0  0  0  0  0  0999 V2000
    2.4068   -0.8391   -0.7128 O   0  0  0  0  0  0  0  0  0  0  0  0
    1.4616   -0.7270    0.3107 C   0  0  0  0  0  0  0  0  0  0  0  0
    0.5115    0.2464    0.0778 C   0  0  0  0  0  0  0  0  0  0  0  0
    0.7082    1.5942   -0.1063 O   0  0  0  0  0  0  0  0  0  0  0  0
   -0.6703    1.5214   -0.2255 C   0  0  0  0  0  0  0  0  0  0  0  0
   -0.4561    0.2956   -1.0490 C   0  0  0  0  0  0  0  0  0  0  0  0
   -1.5710   -0.6002   -0.6567 C   0  0  0  0  0  0  0  0  0  0  0  0
   -1.6646   -0.4067    0.6624 C   0  0  0  0  0  0  0  0  0  0  0  0
   -0.6461    0.6082    0.9525 C   0  0  0  0  0  0  0  0  0  0  0  0
    3.3260   -0.7806   -0.4054 H   0  0  0  0  0  0  0  0  0  0  0  0
    2.0423   -0.6190    1.2496 H   0  0  0  0  0  0  0  0  0  0  0  0
    1.0034   -1.7580    0.3863 H   0  0  0  0  0  0  0  0  0  0  0  0
   -1.3078    2.2838   -0.4061 H   0  0  0  0  0  0  0  0  0  0  0  0
   -0.1433    0.3545   -2.0566 H   0  0  0  0  0  0  0  0  0  0  0  0
   -2.1616   -1.2515   -1.2954 H   0  0  0  0  0  0  0  0  0  0  0  0
   -2.3458   -0.8996    1.3409 H   0  0  0  0  0  0  0  0  0  0  0  0
   -0.4932    0.9775    1.9337 H   0  0  0  0  0  0  0  0  0  0  0  0
  1  2  1  0
  2  3  1  0
  3  4  1  0
  4  5  1  0
  5  6  1  0
  6  7  1  0
  7  8  2  0
  8  9  1  0
  6  3  1  0
  9  3  1  0
  9  5  1  0
  1 10  1  0
  2 11  1  0
  2 12  1  0
  5 13  1  0
  6 14  1  0
  7 15  1  0
  8 16  1  0
  9 17  1  0
M  END
