
     RDKit          3D

 21 21  0  0  0  0  0  0  0  0999 V2000
    3.1051    0.2428   -0.4716 O   0  0  0  0  0  0  0  0  0  0  0  0
    2.2227   -0.8011   -0.3290 C   0  0  0  0  0  0  0  0  0  0  0  0
    0.8498   -0.2392   -0.1952 C   0  0  0  0  0  0  0  0  0  0  0  0
    0.7286    1.0847   -0.2347 C   0  0  0  0  0  0  0  0  0  0  0  0
   -0.5688    1.8097   -0.1161 C   0  0  0  0  0  0  0  0  0  0  0  0
   -1.4939    1.1209   -0.8759 O   0  0  0  0  0  0  0  0  0  0  0  0
   -2.2181    0.1944   -0.1827 C   0  0  0  0  0  0  0  0  0  0  0  0
   -1.4287   -0.7535    0.6504 C   0  0  0  0  0  0  0  0  0  0  0  0
   -0.1942   -1.2910   -0.0340 C   0  0  0  0  0  0  0  0  0  0  0  0
    3.3613    0.5368    0.4523 H   0  0  0  0  0  0  0  0  0  0  0  0
    2.3022   -1.4576   -1.2263 H   0  0  0  0  0  0  0  0  0  0  0  0
    2.4179   -1.3746    0.6100 H   0  0  0  0  0  0  0  0  0  0  0  0
    1.6406    1.6634   -0.3619 H   0  0  0  0  0  0  0  0  0  0  0  0
   -0.8299    1.7778    0.9811 H   0  0  0  0  0  0  0  0  0  0  0  0
   -0.4833    2.8778   -0.3841 H   0  0  0  0  0  0  0  0  0  0  0  0
   -2.9077   -0.3066   -0.8920 H   0  0  0  0  0  0  0  0  0  0  0  0
   -2.8958    0.7634    0.5195 H   0  0  0  0  0  0  0  0  0  0  0  0
   -1.1976   -0.3703    1.6651 H   0  0  0  0  0  0  0  0  0  0  0  0
   -2.0844   -1.6568    0.8305 H   0  0  0  0  0  0  0  0  0  0  0  0
    0.1893   -2.1159    0.6034 H   0  0  0  0  0  0  0  0  0  0  0  0
   -0.5152   -1.7051   -1.0087 H   0  0  0  0  0  0  0  0  0  0  0  0
  1  2  1  0
  2  3  1  0
  3  4  2  0
  4  5  1  0
  5  6  1  0
  6  7  1  0
  7  8  1  0
  8  9  1  0
  9  3  1  0
  1 10  1  0
  2 11  1  0
  2 12  1  0
  4 13  1  0
  5 14  1  0
  5 15  1  0
  7 16  1  0
  7 17  1  0
  8 18  1  0
  8 19  1  0
  9 20  1  0
  9 21  1  0
M  END
