
     RDKit          3D

 18 19  0  0  0  0  0  0  0  0999 V2000
   -2.4280    0.1540   -0.4701 O   0  0  0  0  0  0  0  0  0  0  0  0
   -1.7426   -0.5635    0.4639 C   0  0  0  0  0  0  0  0  0  0  0  0
   -0.2554   -0.5135    0.3491 C   0  0  0  0  0  0  0  0  0  0  0  0
    0.2179   -1.0601   -1.0146 C   0  0  0  0  0  0  0  0  0  0  0  0
    1.2454   -0.1678   -1.4279 O   0  0  0  0  0  0  0  0  0  0  0  0
    1.7285    0.2543   -0.2363 C   0  0  0  0  0  0  0  0  0  0  0  0
    1.5786    1.4058    0.5570 C   0  0  0  0  0  0  0  0  0  0  0  0
    0.3323    0.8365    0.2394 C   0  0  0  0  0  0  0  0  0  0  0  0
   -2.4217    1.1277   -0.3032 H   0  0  0  0  0  0  0  0  0  0  0  0
   -2.0198   -0.2174    1.4772 H   0  0  0  0  0  0  0  0  0  0  0  0
   -2.0439   -1.6423    0.3953 H   0  0  0  0  0  0  0  0  0  0  0  0
    0.1909   -1.0746    1.1716 H   0  0  0  0  0  0  0  0  0  0  0  0
   -0.5919   -1.0011   -1.7621 H   0  0  0  0  0  0  0  0  0  0  0  0
    0.5795   -2.0824   -0.9318 H   0  0  0  0  0  0  0  0  0  0  0  0
    2.0939   -0.6560    0.3353 H   0  0  0  0  0  0  0  0  0  0  0  0
    1.8798    2.3950    0.0989 H   0  0  0  0  0  0  0  0  0  0  0  0
    1.9027    1.4139    1.6270 H   0  0  0  0  0  0  0  0  0  0  0  0
   -0.2462    1.3915   -0.5684 H   0  0  0  0  0  0  0  0  0  0  0  0
  1  2  1  0
  2  3  1  0
  3  4  1  0
  4  5  1  0
  5  6  1  0
  6  7  1  0
  7  8  1  0
  8  3  1  0
  8  6  1  0
  1  9  1  0
  2 10  1  0
  2 11  1  0
  3 12  1  0
  4 13  1  0
  4 14  1  0
  6 15  1  0
  7 16  1  0
  7 17  1  0
  8 18  1  0
M  END
