
     RDKit          3D

 21 22  0  0  0  0  0  0  0  0999 V2000
    3.0987    0.9024   -0.1595 O   0  0  0  0  0  0  0  0  0  0  0  0
    2.4506   -0.3366   -0.1603 C   0  0  0  0  0  0  0  0  0  0  0  0
    1.1058   -0.2109    0.5081 C   0  0  0  0  0  0  0  0  0  0  0  0
    0.1854    0.7876   -0.1865 C   0  0  0  0  0  0  0  0  0  0  0  0
   -0.8907   -0.2410   -0.1182 C   0  0  0  0  0  0  0  0  0  0  0  0
   -1.9855   -0.0381    0.8638 C   0  0  0  0  0  0  0  0  0  0  0  0
   -2.5904    0.5991   -0.3952 C   0  0  0  0  0  0  0  0  0  0  0  0
   -1.7923   -0.3141   -1.1267 O   0  0  0  0  0  0  0  0  0  0  0  0
    0.1004   -1.2925    0.0932 C   0  0  0  0  0  0  0  0  0  0  0  0
    3.1160    1.2556    0.7591 H   0  0  0  0  0  0  0  0  0  0  0  0
    2.3196   -0.7189   -1.1789 H   0  0  0  0  0  0  0  0  0  0  0  0
    3.0566   -1.0592    0.4113 H   0  0  0  0  0  0  0  0  0  0  0  0
    1.1618   -0.0293    1.5885 H   0  0  0  0  0  0  0  0  0  0  0  0
    0.4638    1.0197   -1.2273 H   0  0  0  0  0  0  0  0  0  0  0  0
   -0.0488    1.6614    0.4302 H   0  0  0  0  0  0  0  0  0  0  0  0
   -2.5507   -0.9677    1.0716 H   0  0  0  0  0  0  0  0  0  0  0  0
   -1.8246    0.6478    1.6949 H   0  0  0  0  0  0  0  0  0  0  0  0
   -3.6635    0.4687   -0.5093 H   0  0  0  0  0  0  0  0  0  0  0  0
   -2.1631    1.6005   -0.5207 H   0  0  0  0  0  0  0  0  0  0  0  0
   -0.0174   -1.9969    0.9212 H   0  0  0  0  0  0  0  0  0  0  0  0
    0.4685   -1.7377   -0.8618 H   0  0  0  0  0  0  0  0  0  0  0  0
  1  2  1  0
  2  3  1  0
  3  4  1  0
  4  5  1  0
  5  6  1  0
  6  7  1  0
  7  8  1  0
  5  9  1  0
  9  3  1  0
  8  5  1  0
  1 10  1  0
  2 11  1  0
  2 12  1  0
  3 13  1  0
  4 14  1  0
  4 15  1  0
  6 16  1  0
  6 17  1  0
  7 18  1  0
  7 19  1  0
  9 20  1  0
  9 21  1  0
M  END
