
     RDKit          3D

 21 21  0  0  0  0  0  0  0  0999 V2000
    2.4613    0.9200   -0.4320 O   0  0  0  0  0  0  0  0  0  0  0  0
    2.1290   -0.1881    0.3057 C   0  0  0  0  0  0  0  0  0  0  0  0
    0.6804   -0.5222    0.1593 C   0  0  0  0  0  0  0  0  0  0  0  0
    0.2302   -1.6802   -0.3230 C   0  0  0  0  0  0  0  0  0  0  0  0
   -1.2689   -1.6887   -0.3346 C   0  0  0  0  0  0  0  0  0  0  0  0
   -1.6443   -0.5860    0.6313 C   0  0  0  0  0  0  0  0  0  0  0  0
   -0.4468    0.3460    0.5134 C   0  0  0  0  0  0  0  0  0  0  0  0
   -0.7849    1.3833   -0.5174 C   0  0  0  0  0  0  0  0  0  0  0  0
    0.2298    2.2632   -0.8003 O   0  0  0  0  0  0  0  0  0  0  0  0
    3.0849    1.4657    0.0996 H   0  0  0  0  0  0  0  0  0  0  0  0
    2.3359   -0.0477    1.4060 H   0  0  0  0  0  0  0  0  0  0  0  0
    2.7824   -1.0187   -0.0071 H   0  0  0  0  0  0  0  0  0  0  0  0
    0.8513   -2.4823   -0.6520 H   0  0  0  0  0  0  0  0  0  0  0  0
   -1.6368   -2.6697    0.0206 H   0  0  0  0  0  0  0  0  0  0  0  0
   -1.5853   -1.4554   -1.3619 H   0  0  0  0  0  0  0  0  0  0  0  0
   -2.5719   -0.1263    0.2468 H   0  0  0  0  0  0  0  0  0  0  0  0
   -1.7188   -0.9464    1.6711 H   0  0  0  0  0  0  0  0  0  0  0  0
   -0.3089    0.8831    1.4845 H   0  0  0  0  0  0  0  0  0  0  0  0
   -1.6287    1.9900   -0.0847 H   0  0  0  0  0  0  0  0  0  0  0  0
   -1.1947    0.9479   -1.4497 H   0  0  0  0  0  0  0  0  0  0  0  0
    0.0047    3.2123   -0.5754 H   0  0  0  0  0  0  0  0  0  0  0  0
  1  2  1  0
  2  3  1  0
  3  4  2  0
  4  5  1  0
  5  6  1  0
  6  7  1  0
  7  8  1  0
  8  9  1  0
  7  3  1  0
  1 10  1  0
  2 11  1  0
  2 12  1  0
  4 13  1  0
  5 14  1  0
  5 15  1  0
  6 16  1  0
  6 17  1  0
  7 18  1  0
  8 19  1  0
  8 20  1  0
  9 21  1  0
M  END
