
     RDKit          3D

 19 20  0  0  0  0  0  0  0  0999 V2000
    3.1153    0.1767    0.0828 O   0  0  0  0  0  0  0  0  0  0  0  0
    1.8567   -0.3627   -0.2191 C   0  0  0  0  0  0  0  0  0  0  0  0
    0.8424    0.1033    0.8068 C   0  0  0  0  0  0  0  0  0  0  0  0
    0.7766    1.5006    0.7744 O   0  0  0  0  0  0  0  0  0  0  0  0
   -0.5894    1.5099    0.4937 C   0  0  0  0  0  0  0  0  0  0  0  0
   -0.5530    0.0488    0.3794 C   0  0  0  0  0  0  0  0  0  0  0  0
   -0.9381   -0.6106   -0.8780 C   0  0  0  0  0  0  0  0  0  0  0  0
   -2.2571   -0.6423   -0.0974 C   0  0  0  0  0  0  0  0  0  0  0  0
   -1.4685   -0.7080    1.0569 O   0  0  0  0  0  0  0  0  0  0  0  0
    3.7717   -0.2246   -0.5562 H   0  0  0  0  0  0  0  0  0  0  0  0
    1.5515   -0.0343   -1.2361 H   0  0  0  0  0  0  0  0  0  0  0  0
    1.9637   -1.4709   -0.2042 H   0  0  0  0  0  0  0  0  0  0  0  0
    1.0916   -0.2748    1.8175 H   0  0  0  0  0  0  0  0  0  0  0  0
   -1.1501    1.8359    1.4089 H   0  0  0  0  0  0  0  0  0  0  0  0
   -0.8996    2.0428   -0.4019 H   0  0  0  0  0  0  0  0  0  0  0  0
   -0.5115   -1.6418   -0.9635 H   0  0  0  0  0  0  0  0  0  0  0  0
   -0.9781   -0.0345   -1.8045 H   0  0  0  0  0  0  0  0  0  0  0  0
   -2.7527    0.3276   -0.1729 H   0  0  0  0  0  0  0  0  0  0  0  0
   -2.8714   -1.5411   -0.2864 H   0  0  0  0  0  0  0  0  0  0  0  0
  1  2  1  0
  2  3  1  0
  3  4  1  0
  4  5  1  0
  5  6  1  0
  6  7  1  0
  7  8  1  0
  8  9  1  0
  6  3  1  0
  9  6  1  0
  1 10  1  0
  2 11  1  0
  2 12  1  0
  3 13  1  0
  5 14  1  0
  5 15  1  0
  7 16  1  0
  7 17  1  0
  8 18  1  0
  8 19  1  0
M  END
