
     RDKit          3D

 19 20  0  0  0  0  0  0  0  0999 V2000
    2.1876   -0.4686   -1.0192 O   0  0  0  0  0  0  0  0  0  0  0  0
    1.3024   -0.8413   -0.0392 C   0  0  0  0  0  0  0  0  0  0  0  0
    0.3053    0.2699    0.3322 C   0  0  0  0  0  0  0  0  0  0  0  0
   -0.5677   -0.2324    1.3427 C   0  0  0  0  0  0  0  0  0  0  0  0
   -1.5613   -0.8710    0.7353 C   0  0  0  0  0  0  0  0  0  0  0  0
   -1.2775   -0.7408   -0.7541 C   0  0  0  0  0  0  0  0  0  0  0  0
   -0.7954    0.6601   -0.6927 C   0  0  0  0  0  0  0  0  0  0  0  0
    0.3926    1.3726   -0.5298 C   0  0  0  0  0  0  0  0  0  0  0  0
    0.4377    2.6403    0.1012 O   0  0  0  0  0  0  0  0  0  0  0  0
    3.1365   -0.5373   -0.7788 H   0  0  0  0  0  0  0  0  0  0  0  0
    1.9416   -0.8642    0.9140 H   0  0  0  0  0  0  0  0  0  0  0  0
    0.8884   -1.8351   -0.0846 H   0  0  0  0  0  0  0  0  0  0  0  0
   -0.5019   -0.1506    2.4165 H   0  0  0  0  0  0  0  0  0  0  0  0
   -2.4143   -1.3905    1.1548 H   0  0  0  0  0  0  0  0  0  0  0  0
   -2.2925   -0.7846   -1.2497 H   0  0  0  0  0  0  0  0  0  0  0  0
   -0.6801   -1.4996   -1.1847 H   0  0  0  0  0  0  0  0  0  0  0  0
   -1.6844    1.2599   -0.2795 H   0  0  0  0  0  0  0  0  0  0  0  0
    1.1080    1.3943   -1.3875 H   0  0  0  0  0  0  0  0  0  0  0  0
    0.0749    2.6190    1.0032 H   0  0  0  0  0  0  0  0  0  0  0  0
  1  2  1  0
  2  3  1  0
  3  4  1  0
  4  5  2  0
  5  6  1  0
  6  7  1  0
  7  8  1  0
  8  9  1  0
  7  3  1  0
  8  3  1  0
  1 10  1  0
  2 11  1  0
  2 12  1  0
  4 13  1  0
  5 14  1  0
  6 15  1  0
  6 16  1  0
  7 17  1  0
  8 18  1  0
  9 19  1  0
M  END
