
     RDKit          3D

 19 20  0  0  0  0  0  0  0  0999 V2000
    2.6436   -0.0471   -1.1410 O   0  0  0  0  0  0  0  0  0  0  0  0
    2.1260   -0.2079    0.1586 C   0  0  0  0  0  0  0  0  0  0  0  0
    0.7189    0.3229    0.1303 C   0  0  0  0  0  0  0  0  0  0  0  0
   -0.0383    0.2523    1.4259 C   0  0  0  0  0  0  0  0  0  0  0  0
   -1.1521   -0.4970    0.7171 C   0  0  0  0  0  0  0  0  0  0  0  0
   -2.2436    0.2398    0.3619 O   0  0  0  0  0  0  0  0  0  0  0  0
   -2.1207    0.6520   -0.9362 C   0  0  0  0  0  0  0  0  0  0  0  0
   -1.0228    0.0719   -1.5035 O   0  0  0  0  0  0  0  0  0  0  0  0
   -0.2970   -0.5667   -0.5133 C   0  0  0  0  0  0  0  0  0  0  0  0
    2.2586   -0.7911   -1.6687 H   0  0  0  0  0  0  0  0  0  0  0  0
    2.1772   -1.2571    0.4992 H   0  0  0  0  0  0  0  0  0  0  0  0
    2.7337    0.4830    0.7983 H   0  0  0  0  0  0  0  0  0  0  0  0
    0.7401    1.3717   -0.2785 H   0  0  0  0  0  0  0  0  0  0  0  0
    0.4328   -0.3366    2.2317 H   0  0  0  0  0  0  0  0  0  0  0  0
   -0.4428    1.2134    1.8062 H   0  0  0  0  0  0  0  0  0  0  0  0
   -1.4277   -1.4598    1.1729 H   0  0  0  0  0  0  0  0  0  0  0  0
   -3.0085    0.3872   -1.5726 H   0  0  0  0  0  0  0  0  0  0  0  0
   -2.0798    1.7744   -0.9692 H   0  0  0  0  0  0  0  0  0  0  0  0
    0.0024   -1.6052   -0.7190 H   0  0  0  0  0  0  0  0  0  0  0  0
  1  2  1  0
  2  3  1  0
  3  4  1  0
  4  5  1  0
  5  6  1  0
  6  7  1  0
  7  8  1  0
  8  9  1  0
  9  3  1  0
  9  5  1  0
  1 10  1  0
  2 11  1  0
  2 12  1  0
  3 13  1  0
  4 14  1  0
  4 15  1  0
  5 16  1  0
  7 17  1  0
  7 18  1  0
  9 19  1  0
M  END
