
     RDKit          3D

 21 22  0  0  0  0  0  0  0  0999 V2000
    2.7433   -0.9981    0.1810 O   0  0  0  0  0  0  0  0  0  0  0  0
    1.4624   -0.9381    0.7094 C   0  0  0  0  0  0  0  0  0  0  0  0
    0.4906   -0.4663   -0.3475 C   0  0  0  0  0  0  0  0  0  0  0  0
    0.9806    0.9234   -0.7684 C   0  0  0  0  0  0  0  0  0  0  0  0
    0.4733    1.7397    0.3900 C   0  0  0  0  0  0  0  0  0  0  0  0
   -0.5714    1.1352    0.9431 C   0  0  0  0  0  0  0  0  0  0  0  0
   -0.8438   -0.0937    0.2283 C   0  0  0  0  0  0  0  0  0  0  0  0
   -1.9923   -0.9431    0.3104 C   0  0  0  0  0  0  0  0  0  0  0  0
   -1.9514    0.0181   -0.8263 C   0  0  0  0  0  0  0  0  0  0  0  0
    2.7249   -1.2770   -0.7613 H   0  0  0  0  0  0  0  0  0  0  0  0
    1.4378   -0.1889    1.5233 H   0  0  0  0  0  0  0  0  0  0  0  0
    1.2008   -1.9214    1.1336 H   0  0  0  0  0  0  0  0  0  0  0  0
    0.4644   -1.1725   -1.1656 H   0  0  0  0  0  0  0  0  0  0  0  0
    2.0749    0.9448   -0.8386 H   0  0  0  0  0  0  0  0  0  0  0  0
    0.4610    1.2370   -1.6905 H   0  0  0  0  0  0  0  0  0  0  0  0
    0.8980    2.6797    0.7219 H   0  0  0  0  0  0  0  0  0  0  0  0
   -1.1116    1.5249    1.7923 H   0  0  0  0  0  0  0  0  0  0  0  0
   -1.8970   -2.0083    0.0192 H   0  0  0  0  0  0  0  0  0  0  0  0
   -2.7320   -0.7838    1.1124 H   0  0  0  0  0  0  0  0  0  0  0  0
   -2.5759    0.9356   -0.8175 H   0  0  0  0  0  0  0  0  0  0  0  0
   -1.7366   -0.3471   -1.8490 H   0  0  0  0  0  0  0  0  0  0  0  0
  1  2  1  0
  2  3  1  0
  3  4  1  0
  4  5  1  0
  5  6  2  0
  6  7  1  0
  7  8  1  0
  8  9  1  0
  7  3  1  0
  9  7  1  0
  1 10  1  0
  2 11  1  0
  2 12  1  0
  3 13  1  0
  4 14  1  0
  4 15  1  0
  5 16  1  0
  6 17  1  0
  8 18  1  0
  8 19  1  0
  9 20  1  0
  9 21  1  0
M  END
