
     RDKit          3D

 18 18  0  0  0  0  0  0  0  0999 V2000
    2.8204   -0.2706   -0.4194 O   0  0  0  0  0  0  0  0  0  0  0  0
    1.9910    0.8221   -0.1421 C   0  0  0  0  0  0  0  0  0  0  0  0
    0.5890    0.3409   -0.0755 C   0  0  0  0  0  0  0  0  0  0  0  0
   -0.3846    0.7512   -0.8456 C   0  0  0  0  0  0  0  0  0  0  0  0
   -1.6269    0.0306   -0.4630 C   0  0  0  0  0  0  0  0  0  0  0  0
   -2.2380    0.7798    0.5476 O   0  0  0  0  0  0  0  0  0  0  0  0
   -1.0661   -1.2669    0.0758 C   0  0  0  0  0  0  0  0  0  0  0  0
    0.1034   -0.6962    0.8938 C   0  0  0  0  0  0  0  0  0  0  0  0
    2.3252   -1.1012   -0.3231 H   0  0  0  0  0  0  0  0  0  0  0  0
    2.0987    1.5916   -0.9176 H   0  0  0  0  0  0  0  0  0  0  0  0
    2.2862    1.2646    0.8520 H   0  0  0  0  0  0  0  0  0  0  0  0
   -0.3998    1.4830   -1.6535 H   0  0  0  0  0  0  0  0  0  0  0  0
   -2.2968   -0.1248   -1.3262 H   0  0  0  0  0  0  0  0  0  0  0  0
   -2.3527    1.6928    0.1693 H   0  0  0  0  0  0  0  0  0  0  0  0
   -0.6486   -1.8449   -0.7456 H   0  0  0  0  0  0  0  0  0  0  0  0
   -1.7810   -1.8076    0.7194 H   0  0  0  0  0  0  0  0  0  0  0  0
    0.8454   -1.4748    1.0835 H   0  0  0  0  0  0  0  0  0  0  0  0
   -0.2649   -0.1694    1.7804 H   0  0  0  0  0  0  0  0  0  0  0  0
  1  2  1  0
  2  3  1  0
  3  4  2  0
  4  5  1  0
  5  6  1  0
  5  7  1  0
  7  8  1  0
  8  3  1  0
  1  9  1  0
  2 10  1  0
  2 11  1  0
  4 12  1  0
  5 13  1  0
  6 14  1  0
  7 15  1  0
  7 16  1  0
  8 17  1  0
  8 18  1  0
M  END
