
     RDKit          3D

 19 20  0  0  0  0  0  0  0  0999 V2000
    1.7325    1.0504   -0.9332 O   0  0  0  0  0  0  0  0  0  0  0  0
    1.8016    0.2226    0.1619 C   0  0  0  0  0  0  0  0  0  0  0  0
    0.5192   -0.5001    0.4895 C   0  0  0  0  0  0  0  0  0  0  0  0
    0.7523   -1.3191    1.6170 O   0  0  0  0  0  0  0  0  0  0  0  0
   -0.1292   -1.2189   -0.6561 C   0  0  0  0  0  0  0  0  0  0  0  0
   -1.3087   -0.2933   -0.6615 C   0  0  0  0  0  0  0  0  0  0  0  0
   -2.5657   -0.8453   -0.5873 O   0  0  0  0  0  0  0  0  0  0  0  0
   -1.1575    1.1574   -0.4827 C   0  0  0  0  0  0  0  0  0  0  0  0
   -0.7188    0.3261    0.6394 C   0  0  0  0  0  0  0  0  0  0  0  0
    2.2840    1.8681   -0.8524 H   0  0  0  0  0  0  0  0  0  0  0  0
    2.6089   -0.5462   -0.0196 H   0  0  0  0  0  0  0  0  0  0  0  0
    2.1663    0.8000    1.0596 H   0  0  0  0  0  0  0  0  0  0  0  0
    1.1366   -0.7125    2.2959 H   0  0  0  0  0  0  0  0  0  0  0  0
   -0.4430   -2.2340   -0.3359 H   0  0  0  0  0  0  0  0  0  0  0  0
    0.4876   -1.2052   -1.5912 H   0  0  0  0  0  0  0  0  0  0  0  0
   -3.2646   -0.2009   -0.3434 H   0  0  0  0  0  0  0  0  0  0  0  0
   -0.4182    1.7782   -1.0212 H   0  0  0  0  0  0  0  0  0  0  0  0
   -2.1059    1.7149   -0.3094 H   0  0  0  0  0  0  0  0  0  0  0  0
   -1.3774    0.1579    1.5307 H   0  0  0  0  0  0  0  0  0  0  0  0
  1  2  1  0
  2  3  1  0
  3  4  1  0
  3  5  1  0
  5  6  1  0
  6  7  1  0
  6  8  1  0
  8  9  1  0
  9  3  1  0
  9  6  1  0
  1 10  1  0
  2 11  1  0
  2 12  1  0
  4 13  1  0
  5 14  1  0
  5 15  1  0
  7 16  1  0
  8 17  1  0
  8 18  1  0
  9 19  1  0
M  END
