
     RDKit          3D

 19 20  0  0  0  0  0  0  0  0999 V2000
   -2.5969    0.5613   -0.9519 O   0  0  0  0  0  0  0  0  0  0  0  0
   -1.5055    0.9678   -0.1964 C   0  0  0  0  0  0  0  0  0  0  0  0
   -0.8327   -0.2528    0.3376 C   0  0  0  0  0  0  0  0  0  0  0  0
    0.3924   -0.0078    1.1954 C   0  0  0  0  0  0  0  0  0  0  0  0
    0.8325   -1.3898    0.6877 C   0  0  0  0  0  0  0  0  0  0  0  0
    0.1091   -0.9644   -0.6025 C   0  0  0  0  0  0  0  0  0  0  0  0
    0.8921   -0.0743   -1.3139 O   0  0  0  0  0  0  0  0  0  0  0  0
    1.8214    0.5912   -0.5268 C   0  0  0  0  0  0  0  0  0  0  0  0
    1.2224    0.9621    0.6557 O   0  0  0  0  0  0  0  0  0  0  0  0
   -2.9966    1.2723   -1.4941 H   0  0  0  0  0  0  0  0  0  0  0  0
   -0.8522    1.6718   -0.7122 H   0  0  0  0  0  0  0  0  0  0  0  0
   -1.9317    1.5193    0.6862 H   0  0  0  0  0  0  0  0  0  0  0  0
   -1.5377   -0.9280    0.8100 H   0  0  0  0  0  0  0  0  0  0  0  0
    0.2386    0.0531    2.2656 H   0  0  0  0  0  0  0  0  0  0  0  0
    0.2482   -2.1687    1.1877 H   0  0  0  0  0  0  0  0  0  0  0  0
    1.9010   -1.5285    0.5920 H   0  0  0  0  0  0  0  0  0  0  0  0
   -0.2699   -1.8391   -1.1205 H   0  0  0  0  0  0  0  0  0  0  0  0
    2.7667    0.0342   -0.3946 H   0  0  0  0  0  0  0  0  0  0  0  0
    2.0988    1.5204   -1.1051 H   0  0  0  0  0  0  0  0  0  0  0  0
  1  2  1  0
  2  3  1  0
  3  4  1  0
  4  5  1  0
  5  6  1  0
  6  7  1  0
  7  8  1  0
  8  9  1  0
  6  3  1  0
  9  4  1  0
  1 10  1  0
  2 11  1  0
  2 12  1  0
  3 13  1  0
  4 14  1  0
  5 15  1  0
  5 16  1  0
  6 17  1  0
  8 18  1  0
  8 19  1  0
M  END
