
     RDKit          3D

 19 22  0  0  0  0  0  0  0  0999 V2000
    2.8411   -0.2173   -0.6054 O   0  0  0  0  0  0  0  0  0  0  0  0
    1.8452   -0.6931    0.2816 C   0  0  0  0  0  0  0  0  0  0  0  0
    0.5429   -0.4676   -0.3011 C   0  0  0  0  0  0  0  0  0  0  0  0
    0.0375    0.9883   -0.6659 C   0  0  0  0  0  0  0  0  0  0  0  0
   -1.3741    1.2401   -0.0510 C   0  0  0  0  0  0  0  0  0  0  0  0
   -1.8203   -0.1071    0.5895 C   0  0  0  0  0  0  0  0  0  0  0  0
   -0.5874   -0.2347    0.8015 C   0  0  0  0  0  0  0  0  0  0  0  0
   -0.7360   -1.2541    0.2653 C   0  0  0  0  0  0  0  0  0  0  0  0
   -0.4286   -0.1630   -0.8561 C   0  0  0  0  0  0  0  0  0  0  0  0
    3.1220    0.6901   -0.3962 H   0  0  0  0  0  0  0  0  0  0  0  0
    2.0155   -0.3497    1.2969 H   0  0  0  0  0  0  0  0  0  0  0  0
    2.0285   -1.8064    0.2990 H   0  0  0  0  0  0  0  0  0  0  0  0
    0.8084    1.7107   -0.4682 H   0  0  0  0  0  0  0  0  0  0  0  0
   -2.0762    1.5426   -0.8356 H   0  0  0  0  0  0  0  0  0  0  0  0
   -1.2657    2.0000    0.7236 H   0  0  0  0  0  0  0  0  0  0  0  0
   -2.8160   -0.4614    0.3771 H   0  0  0  0  0  0  0  0  0  0  0  0
    0.1088    0.2306    1.4576 H   0  0  0  0  0  0  0  0  0  0  0  0
   -1.1029   -2.0524   -0.4017 H   0  0  0  0  0  0  0  0  0  0  0  0
   -1.1426   -0.5957   -1.5111 H   0  0  0  0  0  0  0  0  0  0  0  0
  1  2  1  0
  2  3  1  0
  3  4  1  0
  4  5  1  0
  5  6  1  0
  6  7  1  0
  7  8  1  0
  7  9  1  0
  8  3  1  0
  9  3  1  0
  9  4  1  0
  8  6  1  0
  1 10  1  0
  2 11  1  0
  2 12  1  0
  4 13  1  0
  5 14  1  0
  5 15  1  0
  6 16  1  0
  7 17  1  0
  8 18  1  0
  9 19  1  0
M  END
