
     RDKit          3D

 18 19  0  0  0  0  0  0  0  0999 V2000
    1.9360   -1.4422    0.6895 O   0  0  0  0  0  0  0  0  0  0  0  0
    1.7682   -0.5541   -0.3409 C   0  0  0  0  0  0  0  0  0  0  0  0
    0.3410   -0.1038   -0.3776 C   0  0  0  0  0  0  0  0  0  0  0  0
   -0.7474   -1.0639   -0.5706 C   0  0  0  0  0  0  0  0  0  0  0  0
   -1.8426   -0.7048    0.0917 C   0  0  0  0  0  0  0  0  0  0  0  0
   -1.6371    0.5616    0.8293 C   0  0  0  0  0  0  0  0  0  0  0  0
   -0.2023    0.8854    0.5743 C   0  0  0  0  0  0  0  0  0  0  0  0
    0.1377    1.3364   -0.7901 C   0  0  0  0  0  0  0  0  0  0  0  0
    2.7415   -1.1985    1.2072 H   0  0  0  0  0  0  0  0  0  0  0  0
    1.9848   -1.0809   -1.3135 H   0  0  0  0  0  0  0  0  0  0  0  0
    2.4430    0.3050   -0.3088 H   0  0  0  0  0  0  0  0  0  0  0  0
   -0.6681   -1.9587   -1.1798 H   0  0  0  0  0  0  0  0  0  0  0  0
   -2.7855   -1.2608    0.1027 H   0  0  0  0  0  0  0  0  0  0  0  0
   -2.3411    1.3262    0.4476 H   0  0  0  0  0  0  0  0  0  0  0  0
   -1.8716    0.3861    1.8887 H   0  0  0  0  0  0  0  0  0  0  0  0
    0.3999    1.1308    1.4570 H   0  0  0  0  0  0  0  0  0  0  0  0
   -0.6828    1.4640   -1.5220 H   0  0  0  0  0  0  0  0  0  0  0  0
    1.0264    1.9722   -0.8846 H   0  0  0  0  0  0  0  0  0  0  0  0
  1  2  1  0
  2  3  1  0
  3  4  1  0
  4  5  2  0
  5  6  1  0
  6  7  1  0
  7  8  1  0
  7  3  1  0
  8  3  1  0
  1  9  1  0
  2 10  1  0
  2 11  1  0
  4 12  1  0
  5 13  1  0
  6 14  1  0
  6 15  1  0
  7 16  1  0
  8 17  1  0
  8 18  1  0
M  END
