
     RDKit          3D

 15 16  0  0  0  0  0  0  0  0999 V2000
    2.2923   -0.1520    0.0844 O   0  0  0  0  0  0  0  0  0  0  0  0
    1.1739    0.4210   -0.5603 C   0  0  0  0  0  0  0  0  0  0  0  0
   -0.0394   -0.0142    0.1846 C   0  0  0  0  0  0  0  0  0  0  0  0
   -0.3852   -1.4709    0.3260 C   0  0  0  0  0  0  0  0  0  0  0  0
   -1.4505   -1.2511   -0.5471 O   0  0  0  0  0  0  0  0  0  0  0  0
   -1.3283    0.1243   -0.6170 C   0  0  0  0  0  0  0  0  0  0  0  0
   -1.1004    0.9156    0.6167 C   0  0  0  0  0  0  0  0  0  0  0  0
    2.5831    0.3994    0.8565 H   0  0  0  0  0  0  0  0  0  0  0  0
    1.2438    1.5194   -0.5038 H   0  0  0  0  0  0  0  0  0  0  0  0
    1.2211    0.0607   -1.6077 H   0  0  0  0  0  0  0  0  0  0  0  0
    0.4318   -2.0950   -0.0565 H   0  0  0  0  0  0  0  0  0  0  0  0
   -0.7637   -1.6822    1.3298 H   0  0  0  0  0  0  0  0  0  0  0  0
   -1.3217    0.6567   -1.5662 H   0  0  0  0  0  0  0  0  0  0  0  0
   -1.6595    0.5907    1.5361 H   0  0  0  0  0  0  0  0  0  0  0  0
   -0.8973    1.9777    0.5246 H   0  0  0  0  0  0  0  0  0  0  0  0
  1  2  1  0
  2  3  1  0
  3  4  1  0
  4  5  1  0
  5  6  1  0
  6  7  1  0
  6  3  1  0
  7  3  1  0
  1  8  1  0
  2  9  1  0
  2 10  1  0
  4 11  1  0
  4 12  1  0
  6 13  1  0
  7 14  1  0
  7 15  1  0
M  END
