
     RDKit          3D

 21 21  0  0  0  0  0  0  0  0999 V2000
   -1.8614   -0.3404    1.0173 O   0  0  0  0  0  0  0  0  0  0  0  0
   -1.9106    0.1063   -0.2786 C   0  0  0  0  0  0  0  0  0  0  0  0
   -0.5205    0.5068   -0.7955 C   0  0  0  0  0  0  0  0  0  0  0  0
    0.0324    1.5908    0.0456 C   0  0  0  0  0  0  0  0  0  0  0  0
    1.3098    1.2651    0.7180 C   0  0  0  0  0  0  0  0  0  0  0  0
    1.8675    0.0965    0.7905 C   0  0  0  0  0  0  0  0  0  0  0  0
    1.2021   -1.0582    0.1551 C   0  0  0  0  0  0  0  0  0  0  0  0
    0.5457   -1.7710    1.1448 O   0  0  0  0  0  0  0  0  0  0  0  0
    0.3462   -0.6774   -0.9976 C   0  0  0  0  0  0  0  0  0  0  0  0
   -2.1593   -1.2755    1.1351 H   0  0  0  0  0  0  0  0  0  0  0  0
   -2.3711   -0.5998   -0.9939 H   0  0  0  0  0  0  0  0  0  0  0  0
   -2.5514    1.0259   -0.2952 H   0  0  0  0  0  0  0  0  0  0  0  0
   -0.7303    0.9486   -1.8161 H   0  0  0  0  0  0  0  0  0  0  0  0
    0.1987    2.5465   -0.5254 H   0  0  0  0  0  0  0  0  0  0  0  0
   -0.6887    1.8749    0.8489 H   0  0  0  0  0  0  0  0  0  0  0  0
    1.8190    2.1168    1.1974 H   0  0  0  0  0  0  0  0  0  0  0  0
    2.7984   -0.0551    1.2990 H   0  0  0  0  0  0  0  0  0  0  0  0
    2.0065   -1.7450   -0.2386 H   0  0  0  0  0  0  0  0  0  0  0  0
   -0.0388   -2.4546    0.7172 H   0  0  0  0  0  0  0  0  0  0  0  0
   -0.2979   -1.5712   -1.2449 H   0  0  0  0  0  0  0  0  0  0  0  0
    1.0036   -0.5299   -1.8831 H   0  0  0  0  0  0  0  0  0  0  0  0
  1  2  1  0
  2  3  1  0
  3  4  1  0
  4  5  1  0
  5  6  2  0
  6  7  1  0
  7  8  1  0
  7  9  1  0
  9  3  1  0
  1 10  1  0
  2 11  1  0
  2 12  1  0
  3 13  1  0
  4 14  1  0
  4 15  1  0
  5 16  1  0
  6 17  1  0
  7 18  1  0
  8 19  1  0
  9 20  1  0
  9 21  1  0
M  END
