
     RDKit          3D

 19 20  0  0  0  0  0  0  0  0999 V2000
   -2.9008   -0.0358    0.6876 O   0  0  0  0  0  0  0  0  0  0  0  0
   -2.1695   -0.0219   -0.5069 C   0  0  0  0  0  0  0  0  0  0  0  0
   -0.7173   -0.0361   -0.1786 C   0  0  0  0  0  0  0  0  0  0  0  0
    0.0272   -1.0286   -0.6128 C   0  0  0  0  0  0  0  0  0  0  0  0
    1.4695   -1.1464   -0.3502 C   0  0  0  0  0  0  0  0  0  0  0  0
    2.1320    0.1390    0.0092 C   0  0  0  0  0  0  0  0  0  0  0  0
    1.8893    1.2964   -0.7126 O   0  0  0  0  0  0  0  0  0  0  0  0
    1.3494    1.1119    0.6135 C   0  0  0  0  0  0  0  0  0  0  0  0
   -0.1303    1.0404    0.6159 C   0  0  0  0  0  0  0  0  0  0  0  0
   -3.0687   -0.9663    1.0012 H   0  0  0  0  0  0  0  0  0  0  0  0
   -2.4704    0.9256   -1.0252 H   0  0  0  0  0  0  0  0  0  0  0  0
   -2.4634   -0.8778   -1.1462 H   0  0  0  0  0  0  0  0  0  0  0  0
   -0.4475   -1.8191   -1.2065 H   0  0  0  0  0  0  0  0  0  0  0  0
    1.5949   -1.8421    0.5219 H   0  0  0  0  0  0  0  0  0  0  0  0
    1.9436   -1.5602   -1.2655 H   0  0  0  0  0  0  0  0  0  0  0  0
    3.2010    0.0204    0.3084 H   0  0  0  0  0  0  0  0  0  0  0  0
    1.7746    1.7923    1.3954 H   0  0  0  0  0  0  0  0  0  0  0  0
   -0.5110    0.9903    1.6632 H   0  0  0  0  0  0  0  0  0  0  0  0
   -0.5026    2.0181    0.1883 H   0  0  0  0  0  0  0  0  0  0  0  0
  1  2  1  0
  2  3  1  0
  3  4  2  0
  4  5  1  0
  5  6  1  0
  6  7  1  0
  7  8  1  0
  8  9  1  0
  9  3  1  0
  8  6  1  0
  1 10  1  0
  2 11  1  0
  2 12  1  0
  4 13  1  0
  5 14  1  0
  5 15  1  0
  6 16  1  0
  8 17  1  0
  9 18  1  0
  9 19  1  0
M  END
