
     RDKit          3D

 19 20  0  0  0  0  0  0  0  0999 V2000
    2.9551   -0.2645   -0.1846 O   0  0  0  0  0  0  0  0  0  0  0  0
    1.7437   -0.9521   -0.0694 C   0  0  0  0  0  0  0  0  0  0  0  0
    0.6529   -0.0690    0.4673 C   0  0  0  0  0  0  0  0  0  0  0  0
   -0.6965   -0.6314    0.6616 C   0  0  0  0  0  0  0  0  0  0  0  0
   -0.8765   -0.6077   -0.8109 C   0  0  0  0  0  0  0  0  0  0  0  0
   -0.1622    0.6702   -0.5511 C   0  0  0  0  0  0  0  0  0  0  0  0
    0.1861    1.5755   -1.3341 O   0  0  0  0  0  0  0  0  0  0  0  0
   -1.1727    0.8144    0.5919 C   0  0  0  0  0  0  0  0  0  0  0  0
   -2.4833    0.8656    0.1927 O   0  0  0  0  0  0  0  0  0  0  0  0
    3.1249    0.3408    0.5715 H   0  0  0  0  0  0  0  0  0  0  0  0
    1.9532   -1.7908    0.6576 H   0  0  0  0  0  0  0  0  0  0  0  0
    1.4887   -1.3498   -1.0656 H   0  0  0  0  0  0  0  0  0  0  0  0
    0.9570    0.5434    1.3543 H   0  0  0  0  0  0  0  0  0  0  0  0
   -1.0209   -1.3051    1.3288 H   0  0  0  0  0  0  0  0  0  0  0  0
   -0.4271   -1.3642   -1.4403 H   0  0  0  0  0  0  0  0  0  0  0  0
   -1.9384   -0.4203   -1.1237 H   0  0  0  0  0  0  0  0  0  0  0  0
   -0.4145    2.3544   -1.4517 H   0  0  0  0  0  0  0  0  0  0  0  0
   -0.8450    1.4635    1.4005 H   0  0  0  0  0  0  0  0  0  0  0  0
   -3.0244    0.1273    0.5582 H   0  0  0  0  0  0  0  0  0  0  0  0
  1  2  1  0
  2  3  1  0
  3  4  1  0
  4  5  1  0
  5  6  1  0
  6  7  1  0
  6  8  1  0
  8  9  1  0
  6  3  1  0
  8  4  1  0
  1 10  1  0
  2 11  1  0
  2 12  1  0
  3 13  1  0
  4 14  1  0
  5 15  1  0
  5 16  1  0
  7 17  1  0
  8 18  1  0
  9 19  1  0
M  END
