
     RDKit          3D

 19 20  0  0  0  0  0  0  0  0999 V2000
    2.5269    0.2474    0.4191 O   0  0  0  0  0  0  0  0  0  0  0  0
    1.6242   -0.5200   -0.3057 C   0  0  0  0  0  0  0  0  0  0  0  0
    0.2806   -0.0926   -0.0354 C   0  0  0  0  0  0  0  0  0  0  0  0
   -0.2179   -0.1631    1.3778 C   0  0  0  0  0  0  0  0  0  0  0  0
   -1.6196   -0.2339    1.2882 O   0  0  0  0  0  0  0  0  0  0  0  0
   -1.9259   -0.0308   -0.0787 C   0  0  0  0  0  0  0  0  0  0  0  0
   -0.8319   -0.9189   -0.7080 C   0  0  0  0  0  0  0  0  0  0  0  0
   -1.5398    1.2412   -0.4110 O   0  0  0  0  0  0  0  0  0  0  0  0
   -0.1392    1.2579   -0.5761 C   0  0  0  0  0  0  0  0  0  0  0  0
    2.1345    1.0312    0.8483 H   0  0  0  0  0  0  0  0  0  0  0  0
    1.8693   -0.3928   -1.3846 H   0  0  0  0  0  0  0  0  0  0  0  0
    1.7926   -1.5859   -0.0653 H   0  0  0  0  0  0  0  0  0  0  0  0
    0.2105   -0.9828    1.9645 H   0  0  0  0  0  0  0  0  0  0  0  0
    0.0149    0.8133    1.8860 H   0  0  0  0  0  0  0  0  0  0  0  0
   -2.9157   -0.3274   -0.3472 H   0  0  0  0  0  0  0  0  0  0  0  0
   -0.8697   -1.9372   -0.3407 H   0  0  0  0  0  0  0  0  0  0  0  0
   -0.7584   -0.7775   -1.7805 H   0  0  0  0  0  0  0  0  0  0  0  0
    0.3198    2.1010   -0.0615 H   0  0  0  0  0  0  0  0  0  0  0  0
    0.0449    1.2707   -1.6891 H   0  0  0  0  0  0  0  0  0  0  0  0
  1  2  1  0
  2  3  1  0
  3  4  1  0
  4  5  1  0
  5  6  1  0
  6  7  1  0
  6  8  1  0
  8  9  1  0
  7  3  1  0
  9  3  1  0
  1 10  1  0
  2 11  1  0
  2 12  1  0
  4 13  1  0
  4 14  1  0
  6 15  1  0
  7 16  1  0
  7 17  1  0
  9 18  1  0
  9 19  1  0
M  END
