
     RDKit          3D

 18 19  0  0  0  0  0  0  0  0999 V2000
   -2.0594   -1.2066   -0.4004 O   0  0  0  0  0  0  0  0  0  0  0  0
   -0.8211   -1.1721    0.1884 C   0  0  0  0  0  0  0  0  0  0  0  0
   -0.2070    0.2237    0.1877 C   0  0  0  0  0  0  0  0  0  0  0  0
    1.1533    0.2687    0.8329 C   0  0  0  0  0  0  0  0  0  0  0  0
    2.1755   -0.6207    0.1549 C   0  0  0  0  0  0  0  0  0  0  0  0
    2.2387    0.7697    0.1758 O   0  0  0  0  0  0  0  0  0  0  0  0
   -0.5211    1.0403   -1.0049 C   0  0  0  0  0  0  0  0  0  0  0  0
   -1.0657    1.4188    0.3349 C   0  0  0  0  0  0  0  0  0  0  0  0
   -1.9599   -1.3578   -1.3673 H   0  0  0  0  0  0  0  0  0  0  0  0
   -0.8112   -1.5085    1.2402 H   0  0  0  0  0  0  0  0  0  0  0  0
   -0.1382   -1.8200   -0.4276 H   0  0  0  0  0  0  0  0  0  0  0  0
    1.1343    0.2497    1.9444 H   0  0  0  0  0  0  0  0  0  0  0  0
    1.9369   -1.0132   -0.8702 H   0  0  0  0  0  0  0  0  0  0  0  0
    2.7958   -1.2237    0.8156 H   0  0  0  0  0  0  0  0  0  0  0  0
    0.2146    1.7203   -1.4727 H   0  0  0  0  0  0  0  0  0  0  0  0
   -1.2953    0.6724   -1.7161 H   0  0  0  0  0  0  0  0  0  0  0  0
   -2.1256    1.2299    0.5921 H   0  0  0  0  0  0  0  0  0  0  0  0
   -0.6447    2.3291    0.7922 H   0  0  0  0  0  0  0  0  0  0  0  0
  1  2  1  0
  2  3  1  0
  3  4  1  0
  4  5  1  0
  5  6  1  0
  3  7  1  0
  7  8  1  0
  8  3  1  0
  6  4  1  0
  1  9  1  0
  2 10  1  0
  2 11  1  0
  4 12  1  0
  5 13  1  0
  5 14  1  0
  7 15  1  0
  7 16  1  0
  8 17  1  0
  8 18  1  0
M  END
