
     RDKit          3D

 19 20  0  0  0  0  0  0  0  0999 V2000
    3.1950   -0.9322    0.5210 O   0  0  0  0  0  0  0  0  0  0  0  0
    2.4725    0.2012    0.2430 C   0  0  0  0  0  0  0  0  0  0  0  0
    1.1378   -0.0914   -0.4028 C   0  0  0  0  0  0  0  0  0  0  0  0
    0.3225   -0.8802    0.4026 O   0  0  0  0  0  0  0  0  0  0  0  0
   -0.9105   -0.7561   -0.2702 C   0  0  0  0  0  0  0  0  0  0  0  0
   -2.0638   -0.4837    0.6395 C   0  0  0  0  0  0  0  0  0  0  0  0
   -1.8436    1.0076    0.4011 C   0  0  0  0  0  0  0  0  0  0  0  0
   -0.9178    0.6909   -0.7375 C   0  0  0  0  0  0  0  0  0  0  0  0
    0.4038    1.0729   -0.5708 O   0  0  0  0  0  0  0  0  0  0  0  0
    3.0188   -1.6998   -0.0524 H   0  0  0  0  0  0  0  0  0  0  0  0
    3.0112    0.8883   -0.4541 H   0  0  0  0  0  0  0  0  0  0  0  0
    2.2928    0.7463    1.1943 H   0  0  0  0  0  0  0  0  0  0  0  0
    1.2791   -0.6315   -1.3616 H   0  0  0  0  0  0  0  0  0  0  0  0
   -1.0641   -1.4450   -1.0991 H   0  0  0  0  0  0  0  0  0  0  0  0
   -3.0290   -0.8160    0.2361 H   0  0  0  0  0  0  0  0  0  0  0  0
   -1.8368   -0.7673    1.6773 H   0  0  0  0  0  0  0  0  0  0  0  0
   -2.7961    1.5153    0.1151 H   0  0  0  0  0  0  0  0  0  0  0  0
   -1.3776    1.5225    1.2642 H   0  0  0  0  0  0  0  0  0  0  0  0
   -1.2942    0.8582   -1.7455 H   0  0  0  0  0  0  0  0  0  0  0  0
  1  2  1  0
  2  3  1  0
  3  4  1  0
  4  5  1  0
  5  6  1  0
  6  7  1  0
  7  8  1  0
  8  9  1  0
  9  3  1  0
  8  5  1  0
  1 10  1  0
  2 11  1  0
  2 12  1  0
  3 13  1  0
  5 14  1  0
  6 15  1  0
  6 16  1  0
  7 17  1  0
  7 18  1  0
  8 19  1  0
M  END
