
     RDKit          3D

 21 23  0  0  0  0  0  0  0  0999 V2000
    2.1904   -1.1769    0.4699 O   0  0  0  0  0  0  0  0  0  0  0  0
    1.9235   -0.0290   -0.2787 C   0  0  0  0  0  0  0  0  0  0  0  0
    0.5686    0.4616    0.0971 C   0  0  0  0  0  0  0  0  0  0  0  0
    0.3104    0.8356    1.4896 C   0  0  0  0  0  0  0  0  0  0  0  0
   -0.2800   -0.4470    1.0561 C   0  0  0  0  0  0  0  0  0  0  0  0
   -1.5162   -0.5501    0.2443 C   0  0  0  0  0  0  0  0  0  0  0  0
   -0.9424   -0.8103   -1.1565 C   0  0  0  0  0  0  0  0  0  0  0  0
   -0.4533    0.6400   -0.9871 C   0  0  0  0  0  0  0  0  0  0  0  0
   -1.7810    0.8501   -0.3168 C   0  0  0  0  0  0  0  0  0  0  0  0
    3.1794   -1.2653    0.5069 H   0  0  0  0  0  0  0  0  0  0  0  0
    2.0408   -0.2862   -1.3431 H   0  0  0  0  0  0  0  0  0  0  0  0
    2.6726    0.7302    0.0602 H   0  0  0  0  0  0  0  0  0  0  0  0
   -0.3643    1.6658    1.7706 H   0  0  0  0  0  0  0  0  0  0  0  0
    1.1735    0.7463    2.1827 H   0  0  0  0  0  0  0  0  0  0  0  0
    0.2183   -1.4219    1.2687 H   0  0  0  0  0  0  0  0  0  0  0  0
   -2.3488   -1.1301    0.5488 H   0  0  0  0  0  0  0  0  0  0  0  0
   -0.1439   -1.5474   -1.1974 H   0  0  0  0  0  0  0  0  0  0  0  0
   -1.7676   -0.8764   -1.8643 H   0  0  0  0  0  0  0  0  0  0  0  0
   -0.2113    1.1737   -1.8734 H   0  0  0  0  0  0  0  0  0  0  0  0
   -1.8763    1.6445    0.4055 H   0  0  0  0  0  0  0  0  0  0  0  0
   -2.5925    0.7928   -1.0830 H   0  0  0  0  0  0  0  0  0  0  0  0
  1  2  1  0
  2  3  1  0
  3  4  1  0
  4  5  1  0
  5  6  1  0
  6  7  1  0
  7  8  1  0
  8  9  1  0
  5  3  1  0
  9  6  1  0
  8  3  1  0
  1 10  1  0
  2 11  1  0
  2 12  1  0
  4 13  1  0
  4 14  1  0
  5 15  1  0
  6 16  1  0
  7 17  1  0
  7 18  1  0
  8 19  1  0
  9 20  1  0
  9 21  1  0
M  END
