
     RDKit          3D

 20 20  0  0  0  0  0  0  0  0999 V2000
    2.4198   -0.7538   -0.4889 O   0  0  0  0  0  0  0  0  0  0  0  0
    1.7431   -0.7921    0.7039 C   0  0  0  0  0  0  0  0  0  0  0  0
    0.3337   -0.2542    0.5962 C   0  0  0  0  0  0  0  0  0  0  0  0
   -0.4447   -1.0684   -0.3942 C   0  0  0  0  0  0  0  0  0  0  0  0
   -1.8648   -0.5057   -0.4140 C   0  0  0  0  0  0  0  0  0  0  0  0
   -1.7924    0.8055   -0.9238 O   0  0  0  0  0  0  0  0  0  0  0  0
   -1.1696    1.5751    0.0403 C   0  0  0  0  0  0  0  0  0  0  0  0
    0.2864    1.1827    0.1977 C   0  0  0  0  0  0  0  0  0  0  0  0
    3.3208   -0.3030   -0.4230 H   0  0  0  0  0  0  0  0  0  0  0  0
    2.2986   -0.1696    1.4565 H   0  0  0  0  0  0  0  0  0  0  0  0
    1.7280   -1.8150    1.1304 H   0  0  0  0  0  0  0  0  0  0  0  0
   -0.1660   -0.3552    1.5767 H   0  0  0  0  0  0  0  0  0  0  0  0
   -0.5271   -2.1014   -0.0104 H   0  0  0  0  0  0  0  0  0  0  0  0
    0.0052   -1.0153   -1.4006 H   0  0  0  0  0  0  0  0  0  0  0  0
   -2.2203   -0.5020    0.6455 H   0  0  0  0  0  0  0  0  0  0  0  0
   -2.5276   -1.1142   -1.0531 H   0  0  0  0  0  0  0  0  0  0  0  0
   -1.3125    2.6590   -0.0900 H   0  0  0  0  0  0  0  0  0  0  0  0
   -1.6584    1.3027    1.0202 H   0  0  0  0  0  0  0  0  0  0  0  0
    0.8363    1.3673   -0.7597 H   0  0  0  0  0  0  0  0  0  0  0  0
    0.7115    1.8576    0.9880 H   0  0  0  0  0  0  0  0  0  0  0  0
  1  2  1  0
  2  3  1  0
  3  4  1  0
  4  5  1  0
  5  6  1  0
  6  7  1  0
  7  8  1  0
  8  3  1  0
  1  9  1  0
  2 10  1  0
  2 11  1  0
  3 12  1  0
  4 13  1  0
  4 14  1  0
  5 15  1  0
  5 16  1  0
  7 17  1  0
  7 18  1  0
  8 19  1  0
  8 20  1  0
M  END
