
     RDKit          3D

 21 22  0  0  0  0  0  0  0  0999 V2000
    2.5653    1.0405    0.4950 O   0  0  0  0  0  0  0  0  0  0  0  0
    1.7428   -0.0434    0.7272 C   0  0  0  0  0  0  0  0  0  0  0  0
    0.8346   -0.3417   -0.4429 C   0  0  0  0  0  0  0  0  0  0  0  0
   -0.0377   -1.5572   -0.0921 C   0  0  0  0  0  0  0  0  0  0  0  0
   -1.2762   -1.5113   -0.7417 O   0  0  0  0  0  0  0  0  0  0  0  0
   -2.1118   -0.4901   -0.2206 C   0  0  0  0  0  0  0  0  0  0  0  0
   -1.1997    0.4901    0.3803 C   0  0  0  0  0  0  0  0  0  0  0  0
   -0.7273    1.7627   -0.0210 C   0  0  0  0  0  0  0  0  0  0  0  0
   -0.1380    0.7126   -0.7530 C   0  0  0  0  0  0  0  0  0  0  0  0
    3.2642    0.8594   -0.1875 H   0  0  0  0  0  0  0  0  0  0  0  0
    1.1944    0.1536    1.6611 H   0  0  0  0  0  0  0  0  0  0  0  0
    2.4232   -0.9192    0.9006 H   0  0  0  0  0  0  0  0  0  0  0  0
    1.5063   -0.5809   -1.3015 H   0  0  0  0  0  0  0  0  0  0  0  0
   -0.0940   -1.7493    0.9761 H   0  0  0  0  0  0  0  0  0  0  0  0
    0.4821   -2.4397   -0.5467 H   0  0  0  0  0  0  0  0  0  0  0  0
   -2.6561    0.0046   -1.0763 H   0  0  0  0  0  0  0  0  0  0  0  0
   -2.8334   -0.9066    0.5043 H   0  0  0  0  0  0  0  0  0  0  0  0
   -0.8158    0.1096    1.3714 H   0  0  0  0  0  0  0  0  0  0  0  0
   -1.4463    2.4494   -0.5541 H   0  0  0  0  0  0  0  0  0  0  0  0
   -0.1666    2.3863    0.7365 H   0  0  0  0  0  0  0  0  0  0  0  0
   -0.5100    0.5705   -1.8151 H   0  0  0  0  0  0  0  0  0  0  0  0
  1  2  1  0
  2  3  1  0
  3  4  1  0
  4  5  1  0
  5  6  1  0
  6  7  1  0
  7  8  1  0
  8  9  1  0
  9  3  1  0
  9  7  1  0
  1 10  1  0
  2 11  1  0
  2 12  1  0
  3 13  1  0
  4 14  1  0
  4 15  1  0
  6 16  1  0
  6 17  1  0
  7 18  1  0
  8 19  1  0
  8 20  1  0
  9 21  1  0
M  END
