
     RDKit          3D

 19 21  0  0  0  0  0  0  0  0999 V2000
    2.6219    0.1081   -0.5127 O   0  0  0  0  0  0  0  0  0  0  0  0
    1.5575   -0.7859   -0.4388 C   0  0  0  0  0  0  0  0  0  0  0  0
    0.3104   -0.2448    0.0663 C   0  0  0  0  0  0  0  0  0  0  0  0
   -0.4581    0.8762   -0.5383 C   0  0  0  0  0  0  0  0  0  0  0  0
   -1.8063    0.2513   -0.7320 C   0  0  0  0  0  0  0  0  0  0  0  0
   -1.9336   -0.7981    0.0702 C   0  0  0  0  0  0  0  0  0  0  0  0
   -0.6951   -0.9721    0.8676 C   0  0  0  0  0  0  0  0  0  0  0  0
    0.0060    0.2232    1.4022 C   0  0  0  0  0  0  0  0  0  0  0  0
   -0.3555    1.5896    0.8173 C   0  0  0  0  0  0  0  0  0  0  0  0
    3.4477   -0.4330   -0.5561 H   0  0  0  0  0  0  0  0  0  0  0  0
    1.4439   -1.2182   -1.4592 H   0  0  0  0  0  0  0  0  0  0  0  0
    1.8970   -1.6242    0.2041 H   0  0  0  0  0  0  0  0  0  0  0  0
   -0.0449    1.4146   -1.3792 H   0  0  0  0  0  0  0  0  0  0  0  0
   -2.5737    0.5865   -1.4145 H   0  0  0  0  0  0  0  0  0  0  0  0
   -2.8025   -1.4334    0.1380 H   0  0  0  0  0  0  0  0  0  0  0  0
   -0.4657   -1.9247    1.3351 H   0  0  0  0  0  0  0  0  0  0  0  0
    0.6335    0.1530    2.2834 H   0  0  0  0  0  0  0  0  0  0  0  0
    0.5262    2.2342    0.8494 H   0  0  0  0  0  0  0  0  0  0  0  0
   -1.3086    1.9976    1.1714 H   0  0  0  0  0  0  0  0  0  0  0  0
  1  2  1  0
  2  3  1  0
  3  4  1  0
  4  5  1  0
  5  6  2  0
  6  7  1  0
  7  8  1  0
  8  9  1  0
  7  3  1  0
  8  3  1  0
  9  4  1  0
  1 10  1  0
  2 11  1  0
  2 12  1  0
  4 13  1  0
  5 14  1  0
  6 15  1  0
  7 16  1  0
  8 17  1  0
  9 18  1  0
  9 19  1  0
M  END
