
     RDKit          3D

 17 19  0  0  0  0  0  0  0  0999 V2000
    2.6845    0.8946   -0.2312 O   0  0  0  0  0  0  0  0  0  0  0  0
    1.7906   -0.1504   -0.5603 C   0  0  0  0  0  0  0  0  0  0  0  0
    0.4725    0.1858   -0.0065 C   0  0  0  0  0  0  0  0  0  0  0  0
    0.5582    0.3294    1.4726 O   0  0  0  0  0  0  0  0  0  0  0  0
   -0.2580   -0.6401    0.9906 C   0  0  0  0  0  0  0  0  0  0  0  0
   -1.7268   -0.3331    0.6385 C   0  0  0  0  0  0  0  0  0  0  0  0
   -1.5515   -0.2180   -0.8440 C   0  0  0  0  0  0  0  0  0  0  0  0
   -1.3781    0.7671   -1.6734 O   0  0  0  0  0  0  0  0  0  0  0  0
   -0.5569    0.9810   -0.6817 C   0  0  0  0  0  0  0  0  0  0  0  0
    2.4055    1.1993    0.6659 H   0  0  0  0  0  0  0  0  0  0  0  0
    1.7818   -0.2324   -1.6444 H   0  0  0  0  0  0  0  0  0  0  0  0
    2.1517   -1.1030   -0.0931 H   0  0  0  0  0  0  0  0  0  0  0  0
    0.0156   -1.6725    1.2192 H   0  0  0  0  0  0  0  0  0  0  0  0
   -2.3021   -1.2387    0.8734 H   0  0  0  0  0  0  0  0  0  0  0  0
   -2.0690    0.5794    1.1272 H   0  0  0  0  0  0  0  0  0  0  0  0
   -1.0760   -1.1783   -1.2234 H   0  0  0  0  0  0  0  0  0  0  0  0
   -0.9419    1.8297   -0.0295 H   0  0  0  0  0  0  0  0  0  0  0  0
  1  2  1  0
  2  3  1  0
  3  4  1  0
  4  5  1  0
  5  6  1  0
  6  7  1  0
  7  8  1  0
  8  9  1  0
  5  3  1  0
  9  7  1  0
  9  3  1  0
  1 10  1  0
  2 11  1  0
  2 12  1  0
  5 13  1  0
  6 14  1  0
  6 15  1  0
  7 16  1  0
  9 17  1  0
M  END
