
     RDKit          3D

 19 21  0  0  0  0  0  0  0  0999 V2000
   -3.0156    0.1212   -0.5449 O   0  0  0  0  0  0  0  0  0  0  0  0
   -1.9738   -0.5970    0.0026 C   0  0  0  0  0  0  0  0  0  0  0  0
   -0.6100   -0.0492   -0.4261 C   0  0  0  0  0  0  0  0  0  0  0  0
    0.4672   -0.9152    0.2351 C   0  0  0  0  0  0  0  0  0  0  0  0
    1.7469   -0.7303   -0.4684 C   0  0  0  0  0  0  0  0  0  0  0  0
    2.2496    0.4666   -0.1980 C   0  0  0  0  0  0  0  0  0  0  0  0
    1.3167    1.2008    0.7371 C   0  0  0  0  0  0  0  0  0  0  0  0
    0.5297    0.1184    1.3116 C   0  0  0  0  0  0  0  0  0  0  0  0
   -0.1311    1.0921    0.4341 C   0  0  0  0  0  0  0  0  0  0  0  0
   -2.8627    0.1719   -1.5262 H   0  0  0  0  0  0  0  0  0  0  0  0
   -1.9679   -1.6740   -0.3227 H   0  0  0  0  0  0  0  0  0  0  0  0
   -2.0262   -0.5761    1.0969 H   0  0  0  0  0  0  0  0  0  0  0  0
   -0.4907    0.0605   -1.5058 H   0  0  0  0  0  0  0  0  0  0  0  0
    0.1595   -1.9181    0.4905 H   0  0  0  0  0  0  0  0  0  0  0  0
    2.2110   -1.4582   -1.1101 H   0  0  0  0  0  0  0  0  0  0  0  0
    3.1880    0.8357   -0.6000 H   0  0  0  0  0  0  0  0  0  0  0  0
    1.7020    2.0382    1.2977 H   0  0  0  0  0  0  0  0  0  0  0  0
    0.3130   -0.0637    2.3422 H   0  0  0  0  0  0  0  0  0  0  0  0
   -0.8056    1.8764    0.7700 H   0  0  0  0  0  0  0  0  0  0  0  0
  1  2  1  0
  2  3  1  0
  3  4  1  0
  4  5  1  0
  5  6  2  0
  6  7  1  0
  7  8  1  0
  8  9  1  0
  9  3  1  0
  8  4  1  0
  9  7  1  0
  1 10  1  0
  2 11  1  0
  2 12  1  0
  3 13  1  0
  4 14  1  0
  5 15  1  0
  6 16  1  0
  7 17  1  0
  8 18  1  0
  9 19  1  0
M  END
