
     RDKit          3D

 17 18  0  0  0  0  0  0  0  0999 V2000
    1.4950    0.8866    0.8216 O   0  0  0  0  0  0  0  0  0  0  0  0
    1.4668   -0.2584    0.0793 C   0  0  0  0  0  0  0  0  0  0  0  0
    0.3286   -0.2053   -0.9568 C   0  0  0  0  0  0  0  0  0  0  0  0
    0.2816   -1.2783   -1.6855 O   0  0  0  0  0  0  0  0  0  0  0  0
   -0.7040   -1.3694   -0.8412 C   0  0  0  0  0  0  0  0  0  0  0  0
   -0.9169   -1.2094    0.5731 C   0  0  0  0  0  0  0  0  0  0  0  0
   -0.9357    0.0816    0.8442 C   0  0  0  0  0  0  0  0  0  0  0  0
   -0.7136    0.7872   -0.4882 C   0  0  0  0  0  0  0  0  0  0  0  0
   -0.2262    2.0565   -0.3290 O   0  0  0  0  0  0  0  0  0  0  0  0
    2.3595    1.3344    0.7860 H   0  0  0  0  0  0  0  0  0  0  0  0
    1.2965   -1.1190    0.7230 H   0  0  0  0  0  0  0  0  0  0  0  0
    2.4471   -0.3688   -0.4283 H   0  0  0  0  0  0  0  0  0  0  0  0
   -1.6974   -1.2006   -1.3838 H   0  0  0  0  0  0  0  0  0  0  0  0
   -1.0428   -1.9954    1.3090 H   0  0  0  0  0  0  0  0  0  0  0  0
   -1.0732    0.5722    1.7781 H   0  0  0  0  0  0  0  0  0  0  0  0
   -1.6139    0.7135   -1.1294 H   0  0  0  0  0  0  0  0  0  0  0  0
   -0.7514    2.5725    0.3279 H   0  0  0  0  0  0  0  0  0  0  0  0
  1  2  1  0
  2  3  1  0
  3  4  1  0
  4  5  1  0
  5  6  1  0
  6  7  2  0
  7  8  1  0
  8  9  1  0
  5  3  1  0
  8  3  1  0
  1 10  1  0
  2 11  1  0
  2 12  1  0
  5 13  1  0
  6 14  1  0
  7 15  1  0
  8 16  1  0
  9 17  1  0
M  END
