
     RDKit          3D

 21 22  0  0  0  0  0  0  0  0999 V2000
   -2.3688   -0.5823    0.9248 O   0  0  0  0  0  0  0  0  0  0  0  0
   -2.1385    0.1416   -0.2539 C   0  0  0  0  0  0  0  0  0  0  0  0
   -0.6280    0.2803   -0.4687 C   0  0  0  0  0  0  0  0  0  0  0  0
    0.0212   -1.0403   -0.5885 C   0  0  0  0  0  0  0  0  0  0  0  0
    1.4188   -1.1402   -0.1049 C   0  0  0  0  0  0  0  0  0  0  0  0
    2.1119    0.1751    0.1109 C   0  0  0  0  0  0  0  0  0  0  0  0
    1.8704    1.2445   -0.7325 O   0  0  0  0  0  0  0  0  0  0  0  0
    1.3864    1.2646    0.6076 C   0  0  0  0  0  0  0  0  0  0  0  0
   -0.1128    1.1270    0.6673 C   0  0  0  0  0  0  0  0  0  0  0  0
   -2.6454   -1.4957    0.6152 H   0  0  0  0  0  0  0  0  0  0  0  0
   -2.6070    1.1342   -0.0943 H   0  0  0  0  0  0  0  0  0  0  0  0
   -2.6366   -0.3135   -1.1229 H   0  0  0  0  0  0  0  0  0  0  0  0
   -0.5071    0.8430   -1.4137 H   0  0  0  0  0  0  0  0  0  0  0  0
   -0.5926   -1.7887   -0.0213 H   0  0  0  0  0  0  0  0  0  0  0  0
   -0.0613   -1.3756   -1.6618 H   0  0  0  0  0  0  0  0  0  0  0  0
    1.4932   -1.7052    0.8623 H   0  0  0  0  0  0  0  0  0  0  0  0
    2.0268   -1.7302   -0.8272 H   0  0  0  0  0  0  0  0  0  0  0  0
    3.1905    0.0545    0.3662 H   0  0  0  0  0  0  0  0  0  0  0  0
    1.7949    2.0372    1.2794 H   0  0  0  0  0  0  0  0  0  0  0  0
   -0.4854    0.7114    1.6071 H   0  0  0  0  0  0  0  0  0  0  0  0
   -0.5305    2.1586    0.5092 H   0  0  0  0  0  0  0  0  0  0  0  0
  1  2  1  0
  2  3  1  0
  3  4  1  0
  4  5  1  0
  5  6  1  0
  6  7  1  0
  7  8  1  0
  8  9  1  0
  9  3  1  0
  8  6  1  0
  1 10  1  0
  2 11  1  0
  2 12  1  0
  3 13  1  0
  4 14  1  0
  4 15  1  0
  5 16  1  0
  5 17  1  0
  6 18  1  0
  8 19  1  0
  9 20  1  0
  9 21  1  0
M  END
