
     RDKit          3D

 21 21  0  0  0  0  0  0  0  0999 V2000
    2.4816    0.3650    1.1850 O   0  0  0  0  0  0  0  0  0  0  0  0
    2.1326   -0.4270    0.1045 C   0  0  0  0  0  0  0  0  0  0  0  0
    0.6604   -0.4566   -0.1679 C   0  0  0  0  0  0  0  0  0  0  0  0
   -0.0240   -0.9621    0.9565 O   0  0  0  0  0  0  0  0  0  0  0  0
   -1.2332   -1.4792    0.4395 C   0  0  0  0  0  0  0  0  0  0  0  0
   -2.0640   -0.3335   -0.0431 C   0  0  0  0  0  0  0  0  0  0  0  0
   -1.3414    0.9713   -0.0891 C   0  0  0  0  0  0  0  0  0  0  0  0
    0.0860    0.8688   -0.5401 C   0  0  0  0  0  0  0  0  0  0  0  0
    0.8896    1.8780   -0.0235 O   0  0  0  0  0  0  0  0  0  0  0  0
    3.4831    0.4048    1.1873 H   0  0  0  0  0  0  0  0  0  0  0  0
    2.6505   -0.0512   -0.7835 H   0  0  0  0  0  0  0  0  0  0  0  0
    2.4376   -1.4713    0.3657 H   0  0  0  0  0  0  0  0  0  0  0  0
    0.4867   -1.1550   -1.0061 H   0  0  0  0  0  0  0  0  0  0  0  0
   -0.9275   -2.1406   -0.4152 H   0  0  0  0  0  0  0  0  0  0  0  0
   -1.7284   -2.1212    1.1829 H   0  0  0  0  0  0  0  0  0  0  0  0
   -2.4245   -0.5634   -1.0779 H   0  0  0  0  0  0  0  0  0  0  0  0
   -2.9397   -0.2216    0.6185 H   0  0  0  0  0  0  0  0  0  0  0  0
   -1.8910    1.6272   -0.8178 H   0  0  0  0  0  0  0  0  0  0  0  0
   -1.3891    1.5236    0.8791 H   0  0  0  0  0  0  0  0  0  0  0  0
    0.1307    0.9761   -1.6569 H   0  0  0  0  0  0  0  0  0  0  0  0
    0.5242    2.7679   -0.2979 H   0  0  0  0  0  0  0  0  0  0  0  0
  1  2  1  0
  2  3  1  0
  3  4  1  0
  4  5  1  0
  5  6  1  0
  6  7  1  0
  7  8  1  0
  8  9  1  0
  8  3  1  0
  1 10  1  0
  2 11  1  0
  2 12  1  0
  3 13  1  0
  5 14  1  0
  5 15  1  0
  6 16  1  0
  6 17  1  0
  7 18  1  0
  7 19  1  0
  8 20  1  0
  9 21  1  0
M  END
