
     RDKit          3D

 21 22  0  0  0  0  0  0  0  0999 V2000
   -2.6034    0.7453   -0.9377 O   0  0  0  0  0  0  0  0  0  0  0  0
   -2.0030   -0.3401   -0.3592 C   0  0  0  0  0  0  0  0  0  0  0  0
   -0.5539   -0.1182   -0.1114 C   0  0  0  0  0  0  0  0  0  0  0  0
    0.2285    0.3223   -1.3148 C   0  0  0  0  0  0  0  0  0  0  0  0
    1.5002    0.8499   -0.6289 C   0  0  0  0  0  0  0  0  0  0  0  0
    1.0850    0.8583    0.8317 C   0  0  0  0  0  0  0  0  0  0  0  0
    1.1943   -0.5399    1.3989 C   0  0  0  0  0  0  0  0  0  0  0  0
    0.1608   -1.2620    0.5185 C   0  0  0  0  0  0  0  0  0  0  0  0
   -0.3237    0.9801    0.7533 O   0  0  0  0  0  0  0  0  0  0  0  0
   -3.1972    1.2589   -0.3207 H   0  0  0  0  0  0  0  0  0  0  0  0
   -2.1761   -1.2686   -0.8962 H   0  0  0  0  0  0  0  0  0  0  0  0
   -2.4852   -0.4731    0.6545 H   0  0  0  0  0  0  0  0  0  0  0  0
    0.4764   -0.4791   -2.0159 H   0  0  0  0  0  0  0  0  0  0  0  0
   -0.2621    1.1963   -1.8117 H   0  0  0  0  0  0  0  0  0  0  0  0
    1.7879    1.8344   -0.9983 H   0  0  0  0  0  0  0  0  0  0  0  0
    2.2998    0.0762   -0.7599 H   0  0  0  0  0  0  0  0  0  0  0  0
    1.5485    1.6266    1.4238 H   0  0  0  0  0  0  0  0  0  0  0  0
    0.8031   -0.5355    2.4399 H   0  0  0  0  0  0  0  0  0  0  0  0
    2.1922   -0.9695    1.2971 H   0  0  0  0  0  0  0  0  0  0  0  0
   -0.4520   -1.9556    1.0854 H   0  0  0  0  0  0  0  0  0  0  0  0
    0.7800   -1.8068   -0.2484 H   0  0  0  0  0  0  0  0  0  0  0  0
  1  2  1  0
  2  3  1  0
  3  4  1  0
  4  5  1  0
  5  6  1  0
  6  7  1  0
  7  8  1  0
  6  9  1  0
  8  3  1  0
  9  3  1  0
  1 10  1  0
  2 11  1  0
  2 12  1  0
  4 13  1  0
  4 14  1  0
  5 15  1  0
  5 16  1  0
  6 17  1  0
  7 18  1  0
  7 19  1  0
  8 20  1  0
  8 21  1  0
M  END
