
     RDKit          3D

 19 20  0  0  0  0  0  0  0  0999 V2000
    1.9984    1.2642    0.7906 O   0  0  0  0  0  0  0  0  0  0  0  0
    1.6386    0.4352   -0.2685 C   0  0  0  0  0  0  0  0  0  0  0  0
    0.5608   -0.5574    0.1587 C   0  0  0  0  0  0  0  0  0  0  0  0
    0.2375   -1.4028   -1.0347 C   0  0  0  0  0  0  0  0  0  0  0  0
   -0.3923   -0.5269   -1.8825 O   0  0  0  0  0  0  0  0  0  0  0  0
   -1.1725    0.3279   -1.1250 C   0  0  0  0  0  0  0  0  0  0  0  0
   -2.0186   -0.3382   -0.0852 C   0  0  0  0  0  0  0  0  0  0  0  0
   -0.7203    0.2477    0.2925 C   0  0  0  0  0  0  0  0  0  0  0  0
   -0.5950    1.3624    1.0843 O   0  0  0  0  0  0  0  0  0  0  0  0
    2.9799    1.2652    0.8306 H   0  0  0  0  0  0  0  0  0  0  0  0
    1.2559    1.0998   -1.0699 H   0  0  0  0  0  0  0  0  0  0  0  0
    2.5003   -0.1127   -0.7018 H   0  0  0  0  0  0  0  0  0  0  0  0
    0.8268   -1.0995    1.0589 H   0  0  0  0  0  0  0  0  0  0  0  0
   -0.3883   -2.2838   -0.7677 H   0  0  0  0  0  0  0  0  0  0  0  0
    1.2135   -1.7260   -1.4795 H   0  0  0  0  0  0  0  0  0  0  0  0
   -1.4578    1.2944   -1.5661 H   0  0  0  0  0  0  0  0  0  0  0  0
   -2.9122    0.2215    0.2138 H   0  0  0  0  0  0  0  0  0  0  0  0
   -2.1752   -1.4252   -0.1754 H   0  0  0  0  0  0  0  0  0  0  0  0
   -1.3796    1.9541    1.0639 H   0  0  0  0  0  0  0  0  0  0  0  0
  1  2  1  0
  2  3  1  0
  3  4  1  0
  4  5  1  0
  5  6  1  0
  6  7  1  0
  7  8  1  0
  8  9  1  0
  8  3  1  0
  8  6  1  0
  1 10  1  0
  2 11  1  0
  2 12  1  0
  3 13  1  0
  4 14  1  0
  4 15  1  0
  6 16  1  0
  7 17  1  0
  7 18  1  0
  9 19  1  0
M  END
