
     RDKit          3D

 23 24  0  0  0  0  0  0  0  0999 V2000
    2.8696    0.6858   -0.4121 O   0  0  0  0  0  0  0  0  0  0  0  0
    1.9394    0.1420    0.4572 C   0  0  0  0  0  0  0  0  0  0  0  0
    0.5582    0.0652   -0.0965 C   0  0  0  0  0  0  0  0  0  0  0  0
   -0.0804    1.3543   -0.5007 C   0  0  0  0  0  0  0  0  0  0  0  0
   -1.4859    1.3496    0.0156 C   0  0  0  0  0  0  0  0  0  0  0  0
   -1.6304    0.1843    0.9413 C   0  0  0  0  0  0  0  0  0  0  0  0
   -0.3685   -0.6297    0.8640 C   0  0  0  0  0  0  0  0  0  0  0  0
   -0.4671   -1.8256   -0.0650 C   0  0  0  0  0  0  0  0  0  0  0  0
    0.2934   -1.0318   -1.0917 C   0  0  0  0  0  0  0  0  0  0  0  0
    2.7411    0.4007   -1.3475 H   0  0  0  0  0  0  0  0  0  0  0  0
    1.8981    0.8316    1.3503 H   0  0  0  0  0  0  0  0  0  0  0  0
    2.2663   -0.8354    0.8051 H   0  0  0  0  0  0  0  0  0  0  0  0
   -0.1283    1.3974   -1.6183 H   0  0  0  0  0  0  0  0  0  0  0  0
    0.5142    2.2345   -0.1664 H   0  0  0  0  0  0  0  0  0  0  0  0
   -1.7533    2.2720    0.5815 H   0  0  0  0  0  0  0  0  0  0  0  0
   -2.2289    1.2401   -0.8115 H   0  0  0  0  0  0  0  0  0  0  0  0
   -2.4880   -0.4722    0.6343 H   0  0  0  0  0  0  0  0  0  0  0  0
   -1.8370    0.4757    1.9910 H   0  0  0  0  0  0  0  0  0  0  0  0
    0.0323   -0.8656    1.8552 H   0  0  0  0  0  0  0  0  0  0  0  0
   -1.5201   -2.0201   -0.2918 H   0  0  0  0  0  0  0  0  0  0  0  0
    0.1143   -2.7002    0.3279 H   0  0  0  0  0  0  0  0  0  0  0  0
   -0.4012   -0.7204   -1.9051 H   0  0  0  0  0  0  0  0  0  0  0  0
    1.1620   -1.5323   -1.5166 H   0  0  0  0  0  0  0  0  0  0  0  0
  1  2  1  0
  2  3  1  0
  3  4  1  0
  4  5  1  0
  5  6  1  0
  6  7  1  0
  7  8  1  0
  8  9  1  0
  7  3  1  0
  9  3  1  0
  1 10  1  0
  2 11  1  0
  2 12  1  0
  4 13  1  0
  4 14  1  0
  5 15  1  0
  5 16  1  0
  6 17  1  0
  6 18  1  0
  7 19  1  0
  8 20  1  0
  8 21  1  0
  9 22  1  0
  9 23  1  0
M  END
