
     RDKit          3D

 19 19  0  0  0  0  0  0  0  0999 V2000
    3.2163    0.5644    0.2063 O   0  0  0  0  0  0  0  0  0  0  0  0
    2.3457   -0.3437   -0.3526 C   0  0  0  0  0  0  0  0  0  0  0  0
    0.9024   -0.0088   -0.1496 C   0  0  0  0  0  0  0  0  0  0  0  0
    0.5095    0.0679    1.1609 O   0  0  0  0  0  0  0  0  0  0  0  0
   -0.7750    0.6071    1.2163 C   0  0  0  0  0  0  0  0  0  0  0  0
   -1.7258   -0.1682    0.3527 C   0  0  0  0  0  0  0  0  0  0  0  0
   -2.8850    0.5577    0.1034 O   0  0  0  0  0  0  0  0  0  0  0  0
   -1.1219   -0.4929   -1.0113 C   0  0  0  0  0  0  0  0  0  0  0  0
    0.1446   -1.0190   -0.7584 O   0  0  0  0  0  0  0  0  0  0  0  0
    3.9462    0.8408   -0.4158 H   0  0  0  0  0  0  0  0  0  0  0  0
    2.5319   -0.3765   -1.4468 H   0  0  0  0  0  0  0  0  0  0  0  0
    2.5072   -1.3761    0.0161 H   0  0  0  0  0  0  0  0  0  0  0  0
    0.6547    0.9760   -0.6328 H   0  0  0  0  0  0  0  0  0  0  0  0
   -1.1764    0.5384    2.2690 H   0  0  0  0  0  0  0  0  0  0  0  0
   -0.7677    1.6933    0.9282 H   0  0  0  0  0  0  0  0  0  0  0  0
   -1.9214   -1.1313    0.8700 H   0  0  0  0  0  0  0  0  0  0  0  0
   -3.6279   -0.0691   -0.1157 H   0  0  0  0  0  0  0  0  0  0  0  0
   -1.7467   -1.2745   -1.4627 H   0  0  0  0  0  0  0  0  0  0  0  0
   -1.0107    0.4145   -1.6222 H   0  0  0  0  0  0  0  0  0  0  0  0
  1  2  1  0
  2  3  1  0
  3  4  1  0
  4  5  1  0
  5  6  1  0
  6  7  1  0
  6  8  1  0
  8  9  1  0
  9  3  1  0
  1 10  1  0
  2 11  1  0
  2 12  1  0
  3 13  1  0
  5 14  1  0
  5 15  1  0
  6 16  1  0
  7 17  1  0
  8 18  1  0
  8 19  1  0
M  END
