
     RDKit          3D

 17 18  0  0  0  0  0  0  0  0999 V2000
   -1.6931   -1.8337    0.2989 O   0  0  0  0  0  0  0  0  0  0  0  0
   -1.5579   -0.5600   -0.3059 C   0  0  0  0  0  0  0  0  0  0  0  0
   -0.3316    0.0062   -0.0167 C   0  0  0  0  0  0  0  0  0  0  0  0
    0.1576    0.3082    1.2509 O   0  0  0  0  0  0  0  0  0  0  0  0
    1.2072    0.7351    0.4359 C   0  0  0  0  0  0  0  0  0  0  0  0
    0.1641    1.3487   -0.4360 C   0  0  0  0  0  0  0  0  0  0  0  0
    0.4493    1.4560   -1.7758 O   0  0  0  0  0  0  0  0  0  0  0  0
    1.0139   -0.5368   -0.3238 C   0  0  0  0  0  0  0  0  0  0  0  0
    1.3669   -1.6325    0.4654 O   0  0  0  0  0  0  0  0  0  0  0  0
   -2.5129   -2.2866   -0.0446 H   0  0  0  0  0  0  0  0  0  0  0  0
   -2.4468    0.0063    0.0433 H   0  0  0  0  0  0  0  0  0  0  0  0
   -1.7276   -0.7335   -1.3899 H   0  0  0  0  0  0  0  0  0  0  0  0
    2.0751    1.1425    0.7483 H   0  0  0  0  0  0  0  0  0  0  0  0
   -0.3444    2.1884    0.0386 H   0  0  0  0  0  0  0  0  0  0  0  0
    0.5271    2.4259   -2.0148 H   0  0  0  0  0  0  0  0  0  0  0  0
    1.3422   -0.5645   -1.3669 H   0  0  0  0  0  0  0  0  0  0  0  0
    2.3109   -1.4697    0.7825 H   0  0  0  0  0  0  0  0  0  0  0  0
  1  2  1  0
  2  3  1  0
  3  4  1  0
  4  5  1  0
  5  6  1  0
  6  7  1  0
  5  8  1  0
  8  9  1  0
  6  3  1  0
  8  3  1  0
  1 10  1  0
  2 11  1  0
  2 12  1  0
  5 13  1  0
  6 14  1  0
  7 15  1  0
  8 16  1  0
  9 17  1  0
M  END
