
     RDKit          3D

 23 24  0  0  0  0  0  0  0  0999 V2000
   -2.4717    1.7666   -0.0205 O   0  0  0  0  0  0  0  0  0  0  0  0
   -1.1189    1.3657    0.0797 C   0  0  0  0  0  0  0  0  0  0  0  0
   -1.1125   -0.1135    0.3915 C   0  0  0  0  0  0  0  0  0  0  0  0
   -1.7874   -0.9723   -0.6587 C   0  0  0  0  0  0  0  0  0  0  0  0
   -0.3941   -1.4109   -1.1293 C   0  0  0  0  0  0  0  0  0  0  0  0
    0.1961   -0.8204    0.1245 C   0  0  0  0  0  0  0  0  0  0  0  0
    1.3632    0.0596   -0.1795 C   0  0  0  0  0  0  0  0  0  0  0  0
    1.8455    1.0734    0.7908 C   0  0  0  0  0  0  0  0  0  0  0  0
    2.6271   -0.2362    0.6335 C   0  0  0  0  0  0  0  0  0  0  0  0
   -3.0669    0.9766   -0.0689 H   0  0  0  0  0  0  0  0  0  0  0  0
   -0.7085    1.9006    0.9575 H   0  0  0  0  0  0  0  0  0  0  0  0
   -0.5564    1.6149   -0.8186 H   0  0  0  0  0  0  0  0  0  0  0  0
   -1.5504   -0.3142    1.3894 H   0  0  0  0  0  0  0  0  0  0  0  0
   -2.3668   -1.8295   -0.2614 H   0  0  0  0  0  0  0  0  0  0  0  0
   -2.3434   -0.3771   -1.4133 H   0  0  0  0  0  0  0  0  0  0  0  0
   -0.1389   -0.8967   -2.0644 H   0  0  0  0  0  0  0  0  0  0  0  0
   -0.3133   -2.5314   -1.1900 H   0  0  0  0  0  0  0  0  0  0  0  0
    0.3895   -1.5507    0.9393 H   0  0  0  0  0  0  0  0  0  0  0  0
    1.5768    0.2721   -1.2445 H   0  0  0  0  0  0  0  0  0  0  0  0
    2.3214    1.9905    0.3883 H   0  0  0  0  0  0  0  0  0  0  0  0
    1.4221    1.1847    1.7976 H   0  0  0  0  0  0  0  0  0  0  0  0
    3.6059   -0.1686    0.1275 H   0  0  0  0  0  0  0  0  0  0  0  0
    2.5817   -0.9834    1.4296 H   0  0  0  0  0  0  0  0  0  0  0  0
  1  2  1  0
  2  3  1  0
  3  4  1  0
  4  5  1  0
  5  6  1  0
  6  7  1  0
  7  8  1  0
  8  9  1  0
  6  3  1  0
  9  7  1  0
  1 10  1  0
  2 11  1  0
  2 12  1  0
  3 13  1  0
  4 14  1  0
  4 15  1  0
  5 16  1  0
  5 17  1  0
  6 18  1  0
  7 19  1  0
  8 20  1  0
  8 21  1  0
  9 22  1  0
  9 23  1  0
M  END
