
     RDKit          3D

 19 21  0  0  0  0  0  0  0  0999 V2000
    2.4592   -0.3480    0.3165 O   0  0  0  0  0  0  0  0  0  0  0  0
    1.6255    0.6199   -0.1717 C   0  0  0  0  0  0  0  0  0  0  0  0
    0.2105    0.1844   -0.2344 C   0  0  0  0  0  0  0  0  0  0  0  0
   -0.7421    1.2351   -0.7720 C   0  0  0  0  0  0  0  0  0  0  0  0
   -1.9552    1.0475   -0.1619 O   0  0  0  0  0  0  0  0  0  0  0  0
   -1.8733    0.0184    0.7449 C   0  0  0  0  0  0  0  0  0  0  0  0
   -1.2501   -1.2483    0.2368 C   0  0  0  0  0  0  0  0  0  0  0  0
   -0.0713   -1.2122   -0.6925 C   0  0  0  0  0  0  0  0  0  0  0  0
   -0.4702   -0.1645    1.0528 C   0  0  0  0  0  0  0  0  0  0  0  0
    3.2941    0.0459    0.6702 H   0  0  0  0  0  0  0  0  0  0  0  0
    1.7028    1.5673    0.3990 H   0  0  0  0  0  0  0  0  0  0  0  0
    1.9560    0.8637   -1.2066 H   0  0  0  0  0  0  0  0  0  0  0  0
   -0.3441    2.2194   -0.4540 H   0  0  0  0  0  0  0  0  0  0  0  0
   -0.8412    1.2027   -1.8615 H   0  0  0  0  0  0  0  0  0  0  0  0
   -2.6107   -0.0645    1.5289 H   0  0  0  0  0  0  0  0  0  0  0  0
   -1.5098   -2.1708    0.7726 H   0  0  0  0  0  0  0  0  0  0  0  0
    0.7206   -1.8962   -0.3160 H   0  0  0  0  0  0  0  0  0  0  0  0
   -0.3044   -1.3360   -1.7661 H   0  0  0  0  0  0  0  0  0  0  0  0
    0.0039   -0.5639    1.9149 H   0  0  0  0  0  0  0  0  0  0  0  0
  1  2  1  0
  2  3  1  0
  3  4  1  0
  4  5  1  0
  5  6  1  0
  6  7  1  0
  7  8  1  0
  7  9  1  0
  8  3  1  0
  9  3  1  0
  9  6  1  0
  1 10  1  0
  2 11  1  0
  2 12  1  0
  4 13  1  0
  4 14  1  0
  6 15  1  0
  7 16  1  0
  8 17  1  0
  8 18  1  0
  9 19  1  0
M  END
