
     RDKit          3D

 23 24  0  0  0  0  0  0  0  0999 V2000
    3.0845    0.4073    0.8505 O   0  0  0  0  0  0  0  0  0  0  0  0
    2.3586    0.1437   -0.3130 C   0  0  0  0  0  0  0  0  0  0  0  0
    1.1220   -0.6445    0.0700 C   0  0  0  0  0  0  0  0  0  0  0  0
    0.3017    0.1799    1.0286 C   0  0  0  0  0  0  0  0  0  0  0  0
   -1.0847   -0.3674    0.9005 C   0  0  0  0  0  0  0  0  0  0  0  0
   -2.1242    0.7220    0.6575 C   0  0  0  0  0  0  0  0  0  0  0  0
   -1.8829    0.5119   -0.8325 C   0  0  0  0  0  0  0  0  0  0  0  0
   -1.1936   -0.8002   -0.5388 C   0  0  0  0  0  0  0  0  0  0  0  0
    0.1982   -0.8480   -1.0943 C   0  0  0  0  0  0  0  0  0  0  0  0
    3.1325    1.3939    0.9769 H   0  0  0  0  0  0  0  0  0  0  0  0
    3.0096   -0.5114   -0.9421 H   0  0  0  0  0  0  0  0  0  0  0  0
    2.0923    1.0714   -0.8366 H   0  0  0  0  0  0  0  0  0  0  0  0
    1.3962   -1.6080    0.4991 H   0  0  0  0  0  0  0  0  0  0  0  0
    0.6486    0.0219    2.0595 H   0  0  0  0  0  0  0  0  0  0  0  0
    0.3577    1.2356    0.6991 H   0  0  0  0  0  0  0  0  0  0  0  0
   -1.3834   -1.1547    1.5965 H   0  0  0  0  0  0  0  0  0  0  0  0
   -3.1451    0.4731    0.9583 H   0  0  0  0  0  0  0  0  0  0  0  0
   -1.7590    1.6971    1.0423 H   0  0  0  0  0  0  0  0  0  0  0  0
   -1.2160    1.3168   -1.2157 H   0  0  0  0  0  0  0  0  0  0  0  0
   -2.8016    0.3295   -1.4243 H   0  0  0  0  0  0  0  0  0  0  0  0
   -1.7978   -1.6996   -0.6775 H   0  0  0  0  0  0  0  0  0  0  0  0
    0.3744   -1.8247   -1.6038 H   0  0  0  0  0  0  0  0  0  0  0  0
    0.3120   -0.0457   -1.8602 H   0  0  0  0  0  0  0  0  0  0  0  0
  1  2  1  0
  2  3  1  0
  3  4  1  0
  4  5  1  0
  5  6  1  0
  6  7  1  0
  7  8  1  0
  8  9  1  0
  9  3  1  0
  8  5  1  0
  1 10  1  0
  2 11  1  0
  2 12  1  0
  3 13  1  0
  4 14  1  0
  4 15  1  0
  5 16  1  0
  6 17  1  0
  6 18  1  0
  7 19  1  0
  7 20  1  0
  8 21  1  0
  9 22  1  0
  9 23  1  0
M  END
