
     RDKit          3D

 21 22  0  0  0  0  0  0  0  0999 V2000
    2.8670    0.2914   -0.1185 O   0  0  0  0  0  0  0  0  0  0  0  0
    1.7397    0.1816   -0.9642 C   0  0  0  0  0  0  0  0  0  0  0  0
    0.6350   -0.4153   -0.1393 C   0  0  0  0  0  0  0  0  0  0  0  0
    0.3102    0.4867    1.0689 C   0  0  0  0  0  0  0  0  0  0  0  0
   -1.1373    0.7466    0.7942 C   0  0  0  0  0  0  0  0  0  0  0  0
   -1.1440    1.0392   -0.6968 C   0  0  0  0  0  0  0  0  0  0  0  0
   -0.6946   -0.4202   -0.8007 C   0  0  0  0  0  0  0  0  0  0  0  0
   -1.6314   -0.6457    0.3952 C   0  0  0  0  0  0  0  0  0  0  0  0
   -1.1285   -1.6007    1.2430 O   0  0  0  0  0  0  0  0  0  0  0  0
    2.9558   -0.5468    0.4049 H   0  0  0  0  0  0  0  0  0  0  0  0
    1.5250    1.1909   -1.3245 H   0  0  0  0  0  0  0  0  0  0  0  0
    2.0119   -0.5368   -1.7398 H   0  0  0  0  0  0  0  0  0  0  0  0
    0.9685   -1.3859    0.2582 H   0  0  0  0  0  0  0  0  0  0  0  0
    0.8908    1.4263    0.9613 H   0  0  0  0  0  0  0  0  0  0  0  0
    0.5068   -0.0402    2.0181 H   0  0  0  0  0  0  0  0  0  0  0  0
   -1.7311    1.3276    1.4415 H   0  0  0  0  0  0  0  0  0  0  0  0
   -0.3983    1.7788   -0.9792 H   0  0  0  0  0  0  0  0  0  0  0  0
   -2.1666    1.1729   -1.0806 H   0  0  0  0  0  0  0  0  0  0  0  0
   -0.8890   -0.9472   -1.6920 H   0  0  0  0  0  0  0  0  0  0  0  0
   -2.6906   -0.6967    0.1413 H   0  0  0  0  0  0  0  0  0  0  0  0
   -0.7990   -2.4066    0.8091 H   0  0  0  0  0  0  0  0  0  0  0  0
  1  2  1  0
  2  3  1  0
  3  4  1  0
  4  5  1  0
  5  6  1  0
  6  7  1  0
  7  8  1  0
  8  9  1  0
  7  3  1  0
  8  5  1  0
  1 10  1  0
  2 11  1  0
  2 12  1  0
  3 13  1  0
  4 14  1  0
  4 15  1  0
  5 16  1  0
  6 17  1  0
  6 18  1  0
  7 19  1  0
  8 20  1  0
  9 21  1  0
M  END
