
     RDKit          3D

 21 22  0  0  0  0  0  0  0  0999 V2000
    2.0264   -1.5750   -0.2166 O   0  0  0  0  0  0  0  0  0  0  0  0
    1.7054   -0.3027    0.1527 C   0  0  0  0  0  0  0  0  0  0  0  0
    0.2670   -0.0033    0.3150 C   0  0  0  0  0  0  0  0  0  0  0  0
   -0.0441    1.4130    0.7235 C   0  0  0  0  0  0  0  0  0  0  0  0
   -0.9392    1.5349   -0.5165 C   0  0  0  0  0  0  0  0  0  0  0  0
   -0.6648    0.0811   -0.7772 C   0  0  0  0  0  0  0  0  0  0  0  0
   -0.4234   -0.3259   -2.0291 O   0  0  0  0  0  0  0  0  0  0  0  0
   -1.6049   -0.8819   -0.0452 C   0  0  0  0  0  0  0  0  0  0  0  0
   -0.5595   -0.9833    1.0732 C   0  0  0  0  0  0  0  0  0  0  0  0
    2.8553   -1.5574   -0.7477 H   0  0  0  0  0  0  0  0  0  0  0  0
    2.1949   -0.1202    1.1556 H   0  0  0  0  0  0  0  0  0  0  0  0
    2.1839    0.4364   -0.5238 H   0  0  0  0  0  0  0  0  0  0  0  0
    0.8334    2.0684    0.6835 H   0  0  0  0  0  0  0  0  0  0  0  0
   -0.6123    1.5390    1.6460 H   0  0  0  0  0  0  0  0  0  0  0  0
   -0.4509    2.1634   -1.2854 H   0  0  0  0  0  0  0  0  0  0  0  0
   -1.9828    1.7607   -0.2957 H   0  0  0  0  0  0  0  0  0  0  0  0
    0.4978   -0.4563   -2.3085 H   0  0  0  0  0  0  0  0  0  0  0  0
   -1.7351   -1.8508   -0.5299 H   0  0  0  0  0  0  0  0  0  0  0  0
   -2.5374   -0.3811    0.3124 H   0  0  0  0  0  0  0  0  0  0  0  0
   -0.9206   -0.5827    2.0514 H   0  0  0  0  0  0  0  0  0  0  0  0
   -0.0892   -1.9764    1.1623 H   0  0  0  0  0  0  0  0  0  0  0  0
  1  2  1  0
  2  3  1  0
  3  4  1  0
  4  5  1  0
  5  6  1  0
  6  7  1  0
  6  8  1  0
  8  9  1  0
  6  3  1  0
  9  3  1  0
  1 10  1  0
  2 11  1  0
  2 12  1  0
  4 13  1  0
  4 14  1  0
  5 15  1  0
  5 16  1  0
  7 17  1  0
  8 18  1  0
  8 19  1  0
  9 20  1  0
  9 21  1  0
M  END
