
     RDKit          3D

 21 22  0  0  0  0  0  0  0  0999 V2000
    2.9317   -0.3962    0.3348 O   0  0  0  0  0  0  0  0  0  0  0  0
    2.0310    0.6204    0.0912 C   0  0  0  0  0  0  0  0  0  0  0  0
    0.6335    0.1300    0.0842 C   0  0  0  0  0  0  0  0  0  0  0  0
   -0.3226    1.1737   -0.4171 C   0  0  0  0  0  0  0  0  0  0  0  0
   -1.6064    0.9885    0.4028 C   0  0  0  0  0  0  0  0  0  0  0  0
   -1.9313   -0.5037    0.2317 C   0  0  0  0  0  0  0  0  0  0  0  0
   -0.6516   -1.2414    0.5330 C   0  0  0  0  0  0  0  0  0  0  0  0
    0.3456   -1.1641   -0.6038 C   0  0  0  0  0  0  0  0  0  0  0  0
    0.2175   -0.4573    1.2813 O   0  0  0  0  0  0  0  0  0  0  0  0
    3.0836   -0.8747   -0.5202 H   0  0  0  0  0  0  0  0  0  0  0  0
    2.1018    1.4319    0.8739 H   0  0  0  0  0  0  0  0  0  0  0  0
    2.2335    1.1261   -0.8772 H   0  0  0  0  0  0  0  0  0  0  0  0
   -0.6033    0.8877   -1.4666 H   0  0  0  0  0  0  0  0  0  0  0  0
    0.0492    2.1924   -0.3915 H   0  0  0  0  0  0  0  0  0  0  0  0
   -1.3336    1.1377    1.4712 H   0  0  0  0  0  0  0  0  0  0  0  0
   -2.4159    1.6310    0.0620 H   0  0  0  0  0  0  0  0  0  0  0  0
   -2.2706   -0.6123   -0.8093 H   0  0  0  0  0  0  0  0  0  0  0  0
   -2.7065   -0.8230    0.9386 H   0  0  0  0  0  0  0  0  0  0  0  0
   -0.8132   -2.2690    0.8864 H   0  0  0  0  0  0  0  0  0  0  0  0
   -0.1069   -1.0520   -1.6052 H   0  0  0  0  0  0  0  0  0  0  0  0
    1.1343   -1.9255   -0.5002 H   0  0  0  0  0  0  0  0  0  0  0  0
  1  2  1  0
  2  3  1  0
  3  4  1  0
  4  5  1  0
  5  6  1  0
  6  7  1  0
  7  8  1  0
  7  9  1  0
  8  3  1  0
  9  3  1  0
  1 10  1  0
  2 11  1  0
  2 12  1  0
  4 13  1  0
  4 14  1  0
  5 15  1  0
  5 16  1  0
  6 17  1  0
  6 18  1  0
  7 19  1  0
  8 20  1  0
  8 21  1  0
M  END
