
     RDKit          3D

 19 20  0  0  0  0  0  0  0  0999 V2000
    2.8234    0.1893    1.2200 O   0  0  0  0  0  0  0  0  0  0  0  0
    2.1477   -0.3987    0.1520 C   0  0  0  0  0  0  0  0  0  0  0  0
    1.2129    0.5815   -0.4593 C   0  0  0  0  0  0  0  0  0  0  0  0
    0.3611    0.0070   -1.5417 C   0  0  0  0  0  0  0  0  0  0  0  0
   -0.8437   -0.2446   -1.0609 C   0  0  0  0  0  0  0  0  0  0  0  0
   -2.2885   -0.6220   -0.7604 C   0  0  0  0  0  0  0  0  0  0  0  0
   -2.1694    0.4419    0.3556 C   0  0  0  0  0  0  0  0  0  0  0  0
   -0.7327    0.0900    0.4232 C   0  0  0  0  0  0  0  0  0  0  0  0
    0.2465    1.0386    0.4766 O   0  0  0  0  0  0  0  0  0  0  0  0
    3.4021    0.8965    0.8308 H   0  0  0  0  0  0  0  0  0  0  0  0
    1.6115   -1.2843    0.5847 H   0  0  0  0  0  0  0  0  0  0  0  0
    2.8930   -0.7485   -0.5907 H   0  0  0  0  0  0  0  0  0  0  0  0
    1.7268    1.4706   -0.8377 H   0  0  0  0  0  0  0  0  0  0  0  0
    0.6811   -0.1697   -2.5421 H   0  0  0  0  0  0  0  0  0  0  0  0
   -2.3795   -1.6541   -0.3721 H   0  0  0  0  0  0  0  0  0  0  0  0
   -2.9683   -0.3286   -1.5833 H   0  0  0  0  0  0  0  0  0  0  0  0
   -2.4345    1.4447    0.0304 H   0  0  0  0  0  0  0  0  0  0  0  0
   -2.7459    0.1333    1.2529 H   0  0  0  0  0  0  0  0  0  0  0  0
   -0.5435   -0.8431    1.0161 H   0  0  0  0  0  0  0  0  0  0  0  0
  1  2  1  0
  2  3  1  0
  3  4  1  0
  4  5  2  0
  5  6  1  0
  6  7  1  0
  7  8  1  0
  8  9  1  0
  9  3  1  0
  8  5  1  0
  1 10  1  0
  2 11  1  0
  2 12  1  0
  3 13  1  0
  4 14  1  0
  6 15  1  0
  6 16  1  0
  7 17  1  0
  7 18  1  0
  8 19  1  0
M  END
