
     RDKit          3D

 19 21  0  0  0  0  0  0  0  0999 V2000
   -1.3792   -1.8915    0.3400 O   0  0  0  0  0  0  0  0  0  0  0  0
   -1.6967   -0.5795    0.1039 C   0  0  0  0  0  0  0  0  0  0  0  0
   -0.4870    0.3040   -0.0099 C   0  0  0  0  0  0  0  0  0  0  0  0
   -0.6786    1.7862   -0.2713 C   0  0  0  0  0  0  0  0  0  0  0  0
   -0.3224    0.9194   -1.4102 C   0  0  0  0  0  0  0  0  0  0  0  0
    0.9493    0.3721   -1.5335 O   0  0  0  0  0  0  0  0  0  0  0  0
    0.8482   -0.1922   -0.3180 C   0  0  0  0  0  0  0  0  0  0  0  0
    1.6352   -1.1869    0.3249 C   0  0  0  0  0  0  0  0  0  0  0  0
    1.9495    0.2204    0.6830 C   0  0  0  0  0  0  0  0  0  0  0  0
   -1.5660   -2.1880    1.2675 H   0  0  0  0  0  0  0  0  0  0  0  0
   -2.3840   -0.4779   -0.7837 H   0  0  0  0  0  0  0  0  0  0  0  0
   -2.2880   -0.2096    0.9727 H   0  0  0  0  0  0  0  0  0  0  0  0
   -1.6927    2.1707   -0.2395 H   0  0  0  0  0  0  0  0  0  0  0  0
    0.1416    2.3955    0.2099 H   0  0  0  0  0  0  0  0  0  0  0  0
   -1.0702    0.7077   -2.1720 H   0  0  0  0  0  0  0  0  0  0  0  0
    1.1738   -1.8067    1.1291 H   0  0  0  0  0  0  0  0  0  0  0  0
    2.4276   -1.7228   -0.2191 H   0  0  0  0  0  0  0  0  0  0  0  0
    1.6096    0.6350    1.6540 H   0  0  0  0  0  0  0  0  0  0  0  0
    2.8301    0.7440    0.2723 H   0  0  0  0  0  0  0  0  0  0  0  0
  1  2  1  0
  2  3  1  0
  3  4  1  0
  4  5  1  0
  5  6  1  0
  6  7  1  0
  7  8  1  0
  8  9  1  0
  5  3  1  0
  9  7  1  0
  7  3  1  0
  1 10  1  0
  2 11  1  0
  2 12  1  0
  4 13  1  0
  4 14  1  0
  5 15  1  0
  8 16  1  0
  8 17  1  0
  9 18  1  0
  9 19  1  0
M  END
