
     RDKit          3D

 15 16  0  0  0  0  0  0  0  0999 V2000
    2.3901   -1.0029   -0.1056 O   0  0  0  0  0  0  0  0  0  0  0  0
    1.3200   -0.2786   -0.6846 C   0  0  0  0  0  0  0  0  0  0  0  0
    0.5133    0.3699    0.3401 C   0  0  0  0  0  0  0  0  0  0  0  0
   -0.1310   -0.3136    1.3391 O   0  0  0  0  0  0  0  0  0  0  0  0
   -1.0922   -0.6291    0.4198 C   0  0  0  0  0  0  0  0  0  0  0  0
   -2.0464    0.1536   -0.3125 C   0  0  0  0  0  0  0  0  0  0  0  0
   -0.8583    0.8754    0.0181 C   0  0  0  0  0  0  0  0  0  0  0  0
    3.0700   -0.3769    0.2646 H   0  0  0  0  0  0  0  0  0  0  0  0
    1.8679    0.5032   -1.2971 H   0  0  0  0  0  0  0  0  0  0  0  0
    0.8884   -0.9561   -1.4053 H   0  0  0  0  0  0  0  0  0  0  0  0
    1.1718    1.1474    0.8433 H   0  0  0  0  0  0  0  0  0  0  0  0
   -0.6647   -1.4132   -0.2406 H   0  0  0  0  0  0  0  0  0  0  0  0
   -2.2367    0.0495   -1.4249 H   0  0  0  0  0  0  0  0  0  0  0  0
   -3.0603    0.2487    0.1852 H   0  0  0  0  0  0  0  0  0  0  0  0
   -1.1319    1.6227    0.8355 H   0  0  0  0  0  0  0  0  0  0  0  0
  1  2  1  0
  2  3  1  0
  3  4  1  0
  4  5  1  0
  5  6  1  0
  6  7  1  0
  7  3  1  0
  7  5  1  0
  1  8  1  0
  2  9  1  0
  2 10  1  0
  3 11  1  0
  5 12  1  0
  6 13  1  0
  6 14  1  0
  7 15  1  0
M  END
