
     RDKit          3D

 18 18  0  0  0  0  0  0  0  0999 V2000
    2.0710   -1.5100   -0.3939 O   0  0  0  0  0  0  0  0  0  0  0  0
    1.6890   -0.1832   -0.3211 C   0  0  0  0  0  0  0  0  0  0  0  0
    0.4240    0.0263    0.4798 C   0  0  0  0  0  0  0  0  0  0  0  0
    0.1188    1.4595    0.4880 C   0  0  0  0  0  0  0  0  0  0  0  0
   -1.1620    1.6283    0.3053 C   0  0  0  0  0  0  0  0  0  0  0  0
   -1.8719    0.3321    0.1521 C   0  0  0  0  0  0  0  0  0  0  0  0
   -0.7530   -0.6742   -0.1150 C   0  0  0  0  0  0  0  0  0  0  0  0
   -1.1076   -1.8268    0.6140 O   0  0  0  0  0  0  0  0  0  0  0  0
    3.0620   -1.5260   -0.3948 H   0  0  0  0  0  0  0  0  0  0  0  0
    2.4697    0.4578    0.1573 H   0  0  0  0  0  0  0  0  0  0  0  0
    1.5125    0.2316   -1.3336 H   0  0  0  0  0  0  0  0  0  0  0  0
    0.6223   -0.3645    1.4980 H   0  0  0  0  0  0  0  0  0  0  0  0
    0.8064    2.3178    0.6207 H   0  0  0  0  0  0  0  0  0  0  0  0
   -1.6934    2.5746    0.2623 H   0  0  0  0  0  0  0  0  0  0  0  0
   -2.4021    0.1262    1.0926 H   0  0  0  0  0  0  0  0  0  0  0  0
   -2.5615    0.3708   -0.7236 H   0  0  0  0  0  0  0  0  0  0  0  0
   -0.6953   -0.8565   -1.1894 H   0  0  0  0  0  0  0  0  0  0  0  0
   -0.5287   -2.5838    0.4366 H   0  0  0  0  0  0  0  0  0  0  0  0
  1  2  1  0
  2  3  1  0
  3  4  1  0
  4  5  2  0
  5  6  1  0
  6  7  1  0
  7  8  1  0
  7  3  1  0
  1  9  1  0
  2 10  1  0
  2 11  1  0
  3 12  1  0
  4 13  1  0
  5 14  1  0
  6 15  1  0
  6 16  1  0
  7 17  1  0
  8 18  1  0
M  END
