
     RDKit          3D

 19 19  0  0  0  0  0  0  0  0999 V2000
    2.7182   -0.7383    1.0589 O   0  0  0  0  0  0  0  0  0  0  0  0
    2.2881    0.2665    0.2011 C   0  0  0  0  0  0  0  0  0  0  0  0
    0.8199    0.1885   -0.0079 C   0  0  0  0  0  0  0  0  0  0  0  0
    0.0956    1.2404    0.3457 C   0  0  0  0  0  0  0  0  0  0  0  0
   -1.3829    1.4669    0.2630 C   0  0  0  0  0  0  0  0  0  0  0  0
   -1.9666    0.6413   -0.6924 O   0  0  0  0  0  0  0  0  0  0  0  0
   -2.1461   -0.6536   -0.2804 C   0  0  0  0  0  0  0  0  0  0  0  0
   -0.9735   -1.4516   -0.7293 C   0  0  0  0  0  0  0  0  0  0  0  0
    0.2834   -1.0390   -0.5865 C   0  0  0  0  0  0  0  0  0  0  0  0
    2.9974   -1.5023    0.4930 H   0  0  0  0  0  0  0  0  0  0  0  0
    2.5344    1.2379    0.6771 H   0  0  0  0  0  0  0  0  0  0  0  0
    2.8217    0.2386   -0.7755 H   0  0  0  0  0  0  0  0  0  0  0  0
    0.6214    2.0845    0.7625 H   0  0  0  0  0  0  0  0  0  0  0  0
   -1.5108    2.5125   -0.0940 H   0  0  0  0  0  0  0  0  0  0  0  0
   -1.8701    1.4059    1.2511 H   0  0  0  0  0  0  0  0  0  0  0  0
   -2.1136   -0.6812    0.8441 H   0  0  0  0  0  0  0  0  0  0  0  0
   -3.1097   -1.0986   -0.5854 H   0  0  0  0  0  0  0  0  0  0  0  0
   -1.1428   -2.4117   -1.1939 H   0  0  0  0  0  0  0  0  0  0  0  0
    1.0360   -1.7068   -0.9512 H   0  0  0  0  0  0  0  0  0  0  0  0
  1  2  1  0
  2  3  1  0
  3  4  2  0
  4  5  1  0
  5  6  1  0
  6  7  1  0
  7  8  1  0
  8  9  2  0
  9  3  1  0
  1 10  1  0
  2 11  1  0
  2 12  1  0
  4 13  1  0
  5 14  1  0
  5 15  1  0
  7 16  1  0
  7 17  1  0
  8 18  1  0
  9 19  1  0
M  END
