
     RDKit          3D

 19 20  0  0  0  0  0  0  0  0999 V2000
   -2.6627   -0.3440   -0.6743 O   0  0  0  0  0  0  0  0  0  0  0  0
   -1.8821    0.5746    0.0252 C   0  0  0  0  0  0  0  0  0  0  0  0
   -0.5357    0.1200    0.1439 C   0  0  0  0  0  0  0  0  0  0  0  0
   -0.1904   -1.1475    0.8244 C   0  0  0  0  0  0  0  0  0  0  0  0
    1.1336   -1.2096    0.6708 C   0  0  0  0  0  0  0  0  0  0  0  0
    1.4539    0.0447   -0.0384 C   0  0  0  0  0  0  0  0  0  0  0  0
    2.6778    0.3929   -0.3480 O   0  0  0  0  0  0  0  0  0  0  0  0
    0.3548    0.0648   -1.1058 C   0  0  0  0  0  0  0  0  0  0  0  0
    0.5448    1.0418    0.7011 C   0  0  0  0  0  0  0  0  0  0  0  0
   -2.2557   -1.2317   -0.5118 H   0  0  0  0  0  0  0  0  0  0  0  0
   -2.3465    0.6755    1.0266 H   0  0  0  0  0  0  0  0  0  0  0  0
   -1.9290    1.5828   -0.4318 H   0  0  0  0  0  0  0  0  0  0  0  0
   -0.8965   -1.8061    1.3045 H   0  0  0  0  0  0  0  0  0  0  0  0
    1.8030   -1.9959    0.9930 H   0  0  0  0  0  0  0  0  0  0  0  0
    2.9533    0.0985   -1.2458 H   0  0  0  0  0  0  0  0  0  0  0  0
    0.3256    0.9849   -1.6879 H   0  0  0  0  0  0  0  0  0  0  0  0
    0.2461   -0.8654   -1.6645 H   0  0  0  0  0  0  0  0  0  0  0  0
    0.5256    2.0351    0.2373 H   0  0  0  0  0  0  0  0  0  0  0  0
    0.6801    0.9847    1.7816 H   0  0  0  0  0  0  0  0  0  0  0  0
  1  2  1  0
  2  3  1  0
  3  4  1  0
  4  5  2  0
  5  6  1  0
  6  7  1  0
  6  8  1  0
  6  9  1  0
  8  3  1  0
  9  3  1  0
  1 10  1  0
  2 11  1  0
  2 12  1  0
  4 13  1  0
  5 14  1  0
  7 15  1  0
  8 16  1  0
  8 17  1  0
  9 18  1  0
  9 19  1  0
M  END
