
     RDKit          3D

 23 23  0  0  0  0  0  0  0  0999 V2000
   -2.5942    0.5398    1.3670 O   0  0  0  0  0  0  0  0  0  0  0  0
   -2.4206   -0.2917    0.2783 C   0  0  0  0  0  0  0  0  0  0  0  0
   -1.0063   -0.3462   -0.2152 C   0  0  0  0  0  0  0  0  0  0  0  0
   -0.0296   -0.8387    0.8081 C   0  0  0  0  0  0  0  0  0  0  0  0
    1.1983   -1.3316    0.0389 C   0  0  0  0  0  0  0  0  0  0  0  0
    2.2213   -0.2305   -0.0940 C   0  0  0  0  0  0  0  0  0  0  0  0
    1.6889    1.0271   -0.6744 C   0  0  0  0  0  0  0  0  0  0  0  0
    0.5528    0.8970   -1.4294 O   0  0  0  0  0  0  0  0  0  0  0  0
   -0.5829    1.0422   -0.6315 C   0  0  0  0  0  0  0  0  0  0  0  0
   -2.6008    1.4771    1.0115 H   0  0  0  0  0  0  0  0  0  0  0  0
   -3.0462    0.0920   -0.5572 H   0  0  0  0  0  0  0  0  0  0  0  0
   -2.8137   -1.3268    0.4817 H   0  0  0  0  0  0  0  0  0  0  0  0
   -0.9551   -0.9963   -1.0878 H   0  0  0  0  0  0  0  0  0  0  0  0
    0.3468    0.0034    1.4456 H   0  0  0  0  0  0  0  0  0  0  0  0
   -0.4362   -1.6520    1.4504 H   0  0  0  0  0  0  0  0  0  0  0  0
    0.8671   -1.7252   -0.9418 H   0  0  0  0  0  0  0  0  0  0  0  0
    1.6943   -2.1710    0.5717 H   0  0  0  0  0  0  0  0  0  0  0  0
    2.5585    0.0021    0.9584 H   0  0  0  0  0  0  0  0  0  0  0  0
    3.0815   -0.6578   -0.6472 H   0  0  0  0  0  0  0  0  0  0  0  0
    1.5041    1.8277    0.0899 H   0  0  0  0  0  0  0  0  0  0  0  0
    2.4902    1.4561   -1.3441 H   0  0  0  0  0  0  0  0  0  0  0  0
   -0.3146    1.6515    0.2766 H   0  0  0  0  0  0  0  0  0  0  0  0
   -1.4036    1.5518   -1.1554 H   0  0  0  0  0  0  0  0  0  0  0  0
  1  2  1  0
  2  3  1  0
  3  4  1  0
  4  5  1  0
  5  6  1  0
  6  7  1  0
  7  8  1  0
  8  9  1  0
  9  3  1  0
  1 10  1  0
  2 11  1  0
  2 12  1  0
  3 13  1  0
  4 14  1  0
  4 15  1  0
  5 16  1  0
  5 17  1  0
  6 18  1  0
  6 19  1  0
  7 20  1  0
  7 21  1  0
  9 22  1  0
  9 23  1  0
M  END
