
     RDKit          3D

 21 23  0  0  0  0  0  0  0  0999 V2000
   -2.6842   -0.1508    1.2221 O   0  0  0  0  0  0  0  0  0  0  0  0
   -2.0506   -0.5458    0.0173 C   0  0  0  0  0  0  0  0  0  0  0  0
   -0.5731   -0.5720    0.1510 C   0  0  0  0  0  0  0  0  0  0  0  0
   -0.0339    0.7886    0.5224 C   0  0  0  0  0  0  0  0  0  0  0  0
   -0.0928    1.0833   -0.9674 C   0  0  0  0  0  0  0  0  0  0  0  0
    0.2743   -0.4013   -1.0674 C   0  0  0  0  0  0  0  0  0  0  0  0
    1.6901   -0.3147   -0.5552 C   0  0  0  0  0  0  0  0  0  0  0  0
    2.0810   -0.7569    0.7820 C   0  0  0  0  0  0  0  0  0  0  0  0
    1.4218    0.5361    0.7381 C   0  0  0  0  0  0  0  0  0  0  0  0
   -3.3208    0.5598    0.9959 H   0  0  0  0  0  0  0  0  0  0  0  0
   -2.4387   -1.6074   -0.1106 H   0  0  0  0  0  0  0  0  0  0  0  0
   -2.4649   -0.0000   -0.8352 H   0  0  0  0  0  0  0  0  0  0  0  0
   -0.2682   -1.3939    0.8362 H   0  0  0  0  0  0  0  0  0  0  0  0
   -0.5868    1.4070    1.1853 H   0  0  0  0  0  0  0  0  0  0  0  0
    0.7327    1.7443   -1.3196 H   0  0  0  0  0  0  0  0  0  0  0  0
   -1.0589    1.2541   -1.4190 H   0  0  0  0  0  0  0  0  0  0  0  0
    0.0590   -0.9087   -1.9684 H   0  0  0  0  0  0  0  0  0  0  0  0
    2.4129    0.1859   -1.2383 H   0  0  0  0  0  0  0  0  0  0  0  0
    3.1970   -0.6994    0.9698 H   0  0  0  0  0  0  0  0  0  0  0  0
    1.6876   -1.6809    1.2205 H   0  0  0  0  0  0  0  0  0  0  0  0
    2.0165    1.4728    0.8406 H   0  0  0  0  0  0  0  0  0  0  0  0
  1  2  1  0
  2  3  1  0
  3  4  1  0
  4  5  1  0
  5  6  1  0
  6  7  1  0
  7  8  1  0
  8  9  1  0
  6  3  1  0
  9  7  1  0
  9  4  1  0
  1 10  1  0
  2 11  1  0
  2 12  1  0
  3 13  1  0
  4 14  1  0
  5 15  1  0
  5 16  1  0
  6 17  1  0
  7 18  1  0
  8 19  1  0
  8 20  1  0
  9 21  1  0
M  END
