
     RDKit          3D

 21 21  0  0  0  0  0  0  0  0999 V2000
    2.8594    0.6681   -0.4571 O   0  0  0  0  0  0  0  0  0  0  0  0
    1.7862    0.9048    0.3901 C   0  0  0  0  0  0  0  0  0  0  0  0
    0.5526    0.3465   -0.2643 C   0  0  0  0  0  0  0  0  0  0  0  0
    0.6610   -1.1427   -0.5168 C   0  0  0  0  0  0  0  0  0  0  0  0
   -0.4119   -1.5256   -1.2748 O   0  0  0  0  0  0  0  0  0  0  0  0
   -1.6381   -1.2858   -0.7154 C   0  0  0  0  0  0  0  0  0  0  0  0
   -1.8547    0.1321   -0.2766 C   0  0  0  0  0  0  0  0  0  0  0  0
   -0.6794    0.5148    0.6144 C   0  0  0  0  0  0  0  0  0  0  0  0
   -0.7901    1.7762    1.1374 O   0  0  0  0  0  0  0  0  0  0  0  0
    3.6878    0.3892    0.0420 H   0  0  0  0  0  0  0  0  0  0  0  0
    1.6546    2.0084    0.4385 H   0  0  0  0  0  0  0  0  0  0  0  0
    1.9459    0.4587    1.3919 H   0  0  0  0  0  0  0  0  0  0  0  0
    0.3708    0.8665   -1.2163 H   0  0  0  0  0  0  0  0  0  0  0  0
    1.5907   -1.4220   -1.0210 H   0  0  0  0  0  0  0  0  0  0  0  0
    0.5529   -1.6363    0.4885 H   0  0  0  0  0  0  0  0  0  0  0  0
   -2.4088   -1.4950   -1.5109 H   0  0  0  0  0  0  0  0  0  0  0  0
   -1.9043   -1.9485    0.1272 H   0  0  0  0  0  0  0  0  0  0  0  0
   -2.8194    0.1852    0.2621 H   0  0  0  0  0  0  0  0  0  0  0  0
   -1.8363    0.7919   -1.1772 H   0  0  0  0  0  0  0  0  0  0  0  0
   -0.6437   -0.2890    1.4069 H   0  0  0  0  0  0  0  0  0  0  0  0
   -0.6752    1.7025    2.1316 H   0  0  0  0  0  0  0  0  0  0  0  0
  1  2  1  0
  2  3  1  0
  3  4  1  0
  4  5  1  0
  5  6  1  0
  6  7  1  0
  7  8  1  0
  8  9  1  0
  8  3  1  0
  1 10  1  0
  2 11  1  0
  2 12  1  0
  3 13  1  0
  4 14  1  0
  4 15  1  0
  6 16  1  0
  6 17  1  0
  7 18  1  0
  7 19  1  0
  8 20  1  0
  9 21  1  0
M  END
