
     RDKit          3D

 21 21  0  0  0  0  0  0  0  0999 V2000
    2.9250   -0.7642   -0.0923 O   0  0  0  0  0  0  0  0  0  0  0  0
    2.2916    0.4330   -0.3957 C   0  0  0  0  0  0  0  0  0  0  0  0
    0.8422    0.3010   -0.0438 C   0  0  0  0  0  0  0  0  0  0  0  0
    0.5089   -0.8676    0.4519 C   0  0  0  0  0  0  0  0  0  0  0  0
   -0.8055   -1.3419    0.9001 C   0  0  0  0  0  0  0  0  0  0  0  0
   -1.7747   -1.1296   -0.2718 C   0  0  0  0  0  0  0  0  0  0  0  0
   -2.1609    0.2916   -0.2096 C   0  0  0  0  0  0  0  0  0  0  0  0
   -1.3774    1.3472   -0.2386 C   0  0  0  0  0  0  0  0  0  0  0  0
    0.0927    1.5408   -0.3373 C   0  0  0  0  0  0  0  0  0  0  0  0
    3.2013   -0.7894    0.8453 H   0  0  0  0  0  0  0  0  0  0  0  0
    2.7867    1.2368    0.1942 H   0  0  0  0  0  0  0  0  0  0  0  0
    2.4060    0.6058   -1.4950 H   0  0  0  0  0  0  0  0  0  0  0  0
    1.3143   -1.5837    0.5441 H   0  0  0  0  0  0  0  0  0  0  0  0
   -1.1172   -0.7409    1.7826 H   0  0  0  0  0  0  0  0  0  0  0  0
   -0.8002   -2.4000    1.2107 H   0  0  0  0  0  0  0  0  0  0  0  0
   -1.2189   -1.2726   -1.2382 H   0  0  0  0  0  0  0  0  0  0  0  0
   -2.6267   -1.8168   -0.2173 H   0  0  0  0  0  0  0  0  0  0  0  0
   -3.2095    0.4877   -0.1310 H   0  0  0  0  0  0  0  0  0  0  0  0
   -1.9507    2.2890   -0.1746 H   0  0  0  0  0  0  0  0  0  0  0  0
    0.2980    1.7957   -1.4154 H   0  0  0  0  0  0  0  0  0  0  0  0
    0.3751    2.3779    0.3316 H   0  0  0  0  0  0  0  0  0  0  0  0
  1  2  1  0
  2  3  1  0
  3  4  2  0
  4  5  1  0
  5  6  1  0
  6  7  1  0
  7  8  2  0
  8  9  1  0
  9  3  1  0
  1 10  1  0
  2 11  1  0
  2 12  1  0
  4 13  1  0
  5 14  1  0
  5 15  1  0
  6 16  1  0
  6 17  1  0
  7 18  1  0
  8 19  1  0
  9 20  1  0
  9 21  1  0
M  END
