
     RDKit          3D

 20 21  0  0  0  0  0  0  0  0999 V2000
    2.7612   -0.1557   -0.4979 O   0  0  0  0  0  0  0  0  0  0  0  0
    1.7798   -0.2618    0.4956 C   0  0  0  0  0  0  0  0  0  0  0  0
    0.6076    0.5927    0.1150 C   0  0  0  0  0  0  0  0  0  0  0  0
   -0.4658    0.4658    1.2191 C   0  0  0  0  0  0  0  0  0  0  0  0
   -1.5639   -0.1377    0.3936 C   0  0  0  0  0  0  0  0  0  0  0  0
   -0.9161   -1.1532   -0.5329 C   0  0  0  0  0  0  0  0  0  0  0  0
   -0.1657    0.0684   -1.0459 C   0  0  0  0  0  0  0  0  0  0  0  0
   -1.5098    0.7887   -0.8338 C   0  0  0  0  0  0  0  0  0  0  0  0
    3.5934   -0.5680   -0.1787 H   0  0  0  0  0  0  0  0  0  0  0  0
    1.4900   -1.3095    0.6121 H   0  0  0  0  0  0  0  0  0  0  0  0
    2.2485    0.1164    1.4260 H   0  0  0  0  0  0  0  0  0  0  0  0
    0.9050    1.6365    0.0120 H   0  0  0  0  0  0  0  0  0  0  0  0
   -0.1118   -0.1858    2.0300 H   0  0  0  0  0  0  0  0  0  0  0  0
   -0.7694    1.4718    1.5759 H   0  0  0  0  0  0  0  0  0  0  0  0
   -2.5123   -0.3455    0.8102 H   0  0  0  0  0  0  0  0  0  0  0  0
   -0.3253   -1.9319   -0.0684 H   0  0  0  0  0  0  0  0  0  0  0  0
   -1.6584   -1.4688   -1.2966 H   0  0  0  0  0  0  0  0  0  0  0  0
    0.2319    0.0538   -2.0242 H   0  0  0  0  0  0  0  0  0  0  0  0
   -1.4111    1.8468   -0.6044 H   0  0  0  0  0  0  0  0  0  0  0  0
   -2.2076    0.4771   -1.6068 H   0  0  0  0  0  0  0  0  0  0  0  0
  1  2  1  0
  2  3  1  0
  3  4  1  0
  4  5  1  0
  5  6  1  0
  6  7  1  0
  7  8  1  0
  7  3  1  0
  8  5  1  0
  1  9  1  0
  2 10  1  0
  2 11  1  0
  3 12  1  0
  4 13  1  0
  4 14  1  0
  5 15  1  0
  6 16  1  0
  6 17  1  0
  7 18  1  0
  8 19  1  0
  8 20  1  0
M  END
