
     RDKit          3D

 19 19  0  0  0  0  0  0  0  0999 V2000
    1.9486   -1.0059    1.2703 O   0  0  0  0  0  0  0  0  0  0  0  0
    1.1475   -1.1186    0.1342 C   0  0  0  0  0  0  0  0  0  0  0  0
    0.1618    0.0364    0.0402 C   0  0  0  0  0  0  0  0  0  0  0  0
    0.8917    1.3170   -0.2677 C   0  0  0  0  0  0  0  0  0  0  0  0
    0.0247    2.3637   -0.5526 O   0  0  0  0  0  0  0  0  0  0  0  0
   -0.6975    0.1048    1.1342 O   0  0  0  0  0  0  0  0  0  0  0  0
   -1.7857    0.3605    0.3150 C   0  0  0  0  0  0  0  0  0  0  0  0
   -1.0028   -0.2994   -0.8199 C   0  0  0  0  0  0  0  0  0  0  0  0
   -1.2327   -1.6887   -0.8613 O   0  0  0  0  0  0  0  0  0  0  0  0
    2.0055   -1.9285    1.6672 H   0  0  0  0  0  0  0  0  0  0  0  0
    0.6119   -2.0936    0.1081 H   0  0  0  0  0  0  0  0  0  0  0  0
    1.8305   -1.1239   -0.7389 H   0  0  0  0  0  0  0  0  0  0  0  0
    1.4247    1.6144    0.6810 H   0  0  0  0  0  0  0  0  0  0  0  0
    1.6622    1.1482   -1.0182 H   0  0  0  0  0  0  0  0  0  0  0  0
    0.3799    2.8255   -1.3621 H   0  0  0  0  0  0  0  0  0  0  0  0
   -2.7189   -0.1708    0.5834 H   0  0  0  0  0  0  0  0  0  0  0  0
   -2.0172    1.4289    0.1351 H   0  0  0  0  0  0  0  0  0  0  0  0
   -1.1374    0.2319   -1.7574 H   0  0  0  0  0  0  0  0  0  0  0  0
   -1.4968   -2.0020    0.0492 H   0  0  0  0  0  0  0  0  0  0  0  0
  1  2  1  0
  2  3  1  0
  3  4  1  0
  4  5  1  0
  3  6  1  0
  6  7  1  0
  7  8  1  0
  8  9  1  0
  8  3  1  0
  1 10  1  0
  2 11  1  0
  2 12  1  0
  4 13  1  0
  4 14  1  0
  5 15  1  0
  7 16  1  0
  7 17  1  0
  8 18  1  0
  9 19  1  0
M  END
