
     RDKit          3D

 16 17  0  0  0  0  0  0  0  0999 V2000
    2.4966    0.6707    0.7095 O   0  0  0  0  0  0  0  0  0  0  0  0
    1.9215   -0.1152   -0.2744 C   0  0  0  0  0  0  0  0  0  0  0  0
    0.4219   -0.1073   -0.1245 C   0  0  0  0  0  0  0  0  0  0  0  0
   -0.3519   -1.1605    0.0883 C   0  0  0  0  0  0  0  0  0  0  0  0
   -1.7868   -0.7952    0.1859 C   0  0  0  0  0  0  0  0  0  0  0  0
   -1.7845    0.6759   -0.0697 C   0  0  0  0  0  0  0  0  0  0  0  0
   -1.1723    1.3996    1.0457 O   0  0  0  0  0  0  0  0  0  0  0  0
   -0.4430    1.0980   -0.1924 C   0  0  0  0  0  0  0  0  0  0  0  0
    3.4519    0.4619    0.7327 H   0  0  0  0  0  0  0  0  0  0  0  0
    2.1141    0.3801   -1.2565 H   0  0  0  0  0  0  0  0  0  0  0  0
    2.3203   -1.1253   -0.3437 H   0  0  0  0  0  0  0  0  0  0  0  0
    0.0878   -2.1774    0.1744 H   0  0  0  0  0  0  0  0  0  0  0  0
   -2.2321   -1.0815    1.1556 H   0  0  0  0  0  0  0  0  0  0  0  0
   -2.2964   -1.3075   -0.6710 H   0  0  0  0  0  0  0  0  0  0  0  0
   -2.6885    1.1732   -0.4692 H   0  0  0  0  0  0  0  0  0  0  0  0
   -0.0584    2.0104   -0.6909 H   0  0  0  0  0  0  0  0  0  0  0  0
  1  2  1  0
  2  3  1  0
  3  4  2  0
  4  5  1  0
  5  6  1  0
  6  7  1  0
  7  8  1  0
  8  3  1  0
  8  6  1  0
  1  9  1  0
  2 10  1  0
  2 11  1  0
  4 12  1  0
  5 13  1  0
  5 14  1  0
  6 15  1  0
  8 16  1  0
M  END
