
     RDKit          3D

 21 21  0  0  0  0  0  0  0  0999 V2000
    2.1946   -0.7293    0.9138 O   0  0  0  0  0  0  0  0  0  0  0  0
    2.1475    0.2291   -0.0872 C   0  0  0  0  0  0  0  0  0  0  0  0
    0.7310    0.5900   -0.4697 C   0  0  0  0  0  0  0  0  0  0  0  0
    0.0303    1.1256    0.7144 C   0  0  0  0  0  0  0  0  0  0  0  0
   -0.7370    0.2415    1.4176 O   0  0  0  0  0  0  0  0  0  0  0  0
   -2.0113    0.0871    0.8262 C   0  0  0  0  0  0  0  0  0  0  0  0
   -1.9093   -1.0737   -0.1348 C   0  0  0  0  0  0  0  0  0  0  0  0
   -0.5829   -1.4345   -0.3547 O   0  0  0  0  0  0  0  0  0  0  0  0
    0.0996   -0.5567   -1.1544 C   0  0  0  0  0  0  0  0  0  0  0  0
    3.0438   -1.2397    0.8050 H   0  0  0  0  0  0  0  0  0  0  0  0
    2.7032    1.1256    0.2875 H   0  0  0  0  0  0  0  0  0  0  0  0
    2.6768   -0.1621   -0.9752 H   0  0  0  0  0  0  0  0  0  0  0  0
    0.8257    1.4280   -1.2219 H   0  0  0  0  0  0  0  0  0  0  0  0
    0.7855    1.5569    1.4243 H   0  0  0  0  0  0  0  0  0  0  0  0
   -0.6195    1.9995    0.4267 H   0  0  0  0  0  0  0  0  0  0  0  0
   -2.7118   -0.0899    1.6532 H   0  0  0  0  0  0  0  0  0  0  0  0
   -2.2257    1.0501    0.2897 H   0  0  0  0  0  0  0  0  0  0  0  0
   -2.3801   -1.9513    0.3923 H   0  0  0  0  0  0  0  0  0  0  0  0
   -2.4375   -0.8526   -1.0959 H   0  0  0  0  0  0  0  0  0  0  0  0
   -0.5401   -0.1944   -1.9943 H   0  0  0  0  0  0  0  0  0  0  0  0
    0.9171   -1.1492   -1.6627 H   0  0  0  0  0  0  0  0  0  0  0  0
  1  2  1  0
  2  3  1  0
  3  4  1  0
  4  5  1  0
  5  6  1  0
  6  7  1  0
  7  8  1  0
  8  9  1  0
  9  3  1  0
  1 10  1  0
  2 11  1  0
  2 12  1  0
  3 13  1  0
  4 14  1  0
  4 15  1  0
  6 16  1  0
  6 17  1  0
  7 18  1  0
  7 19  1  0
  9 20  1  0
  9 21  1  0
M  END
