
     RDKit          3D

 15 16  0  0  0  0  0  0  0  0999 V2000
    2.7325   -0.0441   -0.3242 O   0  0  0  0  0  0  0  0  0  0  0  0
    1.7189   -0.3017    0.5935 C   0  0  0  0  0  0  0  0  0  0  0  0
    0.3664   -0.4229   -0.1247 C   0  0  0  0  0  0  0  0  0  0  0  0
   -0.8656   -0.6882    0.5732 C   0  0  0  0  0  0  0  0  0  0  0  0
   -2.1652    0.1148    0.4049 C   0  0  0  0  0  0  0  0  0  0  0  0
   -1.3316    1.1270    0.9564 O   0  0  0  0  0  0  0  0  0  0  0  0
   -0.4899    0.7083   -0.0702 C   0  0  0  0  0  0  0  0  0  0  0  0
    3.0307    0.8786   -0.2794 H   0  0  0  0  0  0  0  0  0  0  0  0
    1.9610   -1.2039    1.1498 H   0  0  0  0  0  0  0  0  0  0  0  0
    1.6974    0.5607    1.3142 H   0  0  0  0  0  0  0  0  0  0  0  0
    0.4962   -1.0222   -1.0717 H   0  0  0  0  0  0  0  0  0  0  0  0
   -0.6868   -0.7400    1.6945 H   0  0  0  0  0  0  0  0  0  0  0  0
   -2.4947    0.2767   -0.6157 H   0  0  0  0  0  0  0  0  0  0  0  0
   -2.9445   -0.1675    1.1190 H   0  0  0  0  0  0  0  0  0  0  0  0
   -1.0249    0.9243   -1.0475 H   0  0  0  0  0  0  0  0  0  0  0  0
  1  2  1  0
  2  3  1  0
  3  4  1  0
  4  5  1  0
  5  6  1  0
  6  7  1  0
  7  3  1  0
  7  4  1  0
  1  8  1  0
  2  9  1  0
  2 10  1  0
  3 11  1  0
  4 12  1  0
  5 13  1  0
  5 14  1  0
  7 15  1  0
M  END
