
     RDKit          3D

 19 20  0  0  0  0  0  0  0  0999 V2000
    2.5832   -1.2542    1.1225 O   0  0  0  0  0  0  0  0  0  0  0  0
    2.6600   -0.3951    0.0373 C   0  0  0  0  0  0  0  0  0  0  0  0
    1.4186    0.4536   -0.1195 C   0  0  0  0  0  0  0  0  0  0  0  0
    1.0748    1.3086    0.9563 O   0  0  0  0  0  0  0  0  0  0  0  0
    0.2060    0.2596    0.6078 C   0  0  0  0  0  0  0  0  0  0  0  0
   -1.1037    0.6450   -0.0755 C   0  0  0  0  0  0  0  0  0  0  0  0
   -1.3840   -0.0819   -1.3352 C   0  0  0  0  0  0  0  0  0  0  0  0
   -2.2372   -0.2755   -0.1138 C   0  0  0  0  0  0  0  0  0  0  0  0
   -3.5222    0.2964   -0.1934 O   0  0  0  0  0  0  0  0  0  0  0  0
    1.9552   -1.9997    0.9778 H   0  0  0  0  0  0  0  0  0  0  0  0
    3.5005    0.3068    0.2399 H   0  0  0  0  0  0  0  0  0  0  0  0
    2.8417   -0.9082   -0.9033 H   0  0  0  0  0  0  0  0  0  0  0  0
    1.3955    1.0048   -1.0847 H   0  0  0  0  0  0  0  0  0  0  0  0
    0.1200   -0.4906    1.4214 H   0  0  0  0  0  0  0  0  0  0  0  0
   -1.2985    1.7303   -0.0797 H   0  0  0  0  0  0  0  0  0  0  0  0
   -1.8005    0.4910   -2.1803 H   0  0  0  0  0  0  0  0  0  0  0  0
   -0.7897   -0.9950   -1.6109 H   0  0  0  0  0  0  0  0  0  0  0  0
   -2.2212   -1.2415    0.4224 H   0  0  0  0  0  0  0  0  0  0  0  0
   -3.3985    1.1454   -0.7104 H   0  0  0  0  0  0  0  0  0  0  0  0
  1  2  1  0
  2  3  1  0
  3  4  1  0
  4  5  1  0
  5  6  1  0
  6  7  1  0
  7  8  1  0
  8  9  1  0
  5  3  1  0
  8  6  1  0
  1 10  1  0
  2 11  1  0
  2 12  1  0
  3 13  1  0
  5 14  1  0
  6 15  1  0
  7 16  1  0
  7 17  1  0
  8 18  1  0
  9 19  1  0
M  END
