
     RDKit          3D

 20 20  0  0  0  0  0  0  0  0999 V2000
    2.3092    0.5808   -0.9272 O   0  0  0  0  0  0  0  0  0  0  0  0
    2.0689   -0.2013    0.2035 C   0  0  0  0  0  0  0  0  0  0  0  0
    0.5887   -0.3773    0.3294 C   0  0  0  0  0  0  0  0  0  0  0  0
   -0.0844    0.9742    0.4784 C   0  0  0  0  0  0  0  0  0  0  0  0
   -1.5158    0.6510    0.8562 C   0  0  0  0  0  0  0  0  0  0  0  0
   -2.1128   -0.2150   -0.2209 C   0  0  0  0  0  0  0  0  0  0  0  0
   -1.3665   -1.3307   -0.5162 O   0  0  0  0  0  0  0  0  0  0  0  0
   -0.0529   -1.0154   -0.8630 C   0  0  0  0  0  0  0  0  0  0  0  0
    3.1594    0.3808   -1.3645 H   0  0  0  0  0  0  0  0  0  0  0  0
    2.4129    0.3757    1.0891 H   0  0  0  0  0  0  0  0  0  0  0  0
    2.5789   -1.1781    0.1580 H   0  0  0  0  0  0  0  0  0  0  0  0
    0.3193   -1.0035    1.2204 H   0  0  0  0  0  0  0  0  0  0  0  0
   -0.1346    1.4880   -0.5220 H   0  0  0  0  0  0  0  0  0  0  0  0
    0.4178    1.6116    1.2199 H   0  0  0  0  0  0  0  0  0  0  0  0
   -1.4590    0.0825    1.8208 H   0  0  0  0  0  0  0  0  0  0  0  0
   -2.1420    1.5576    0.9394 H   0  0  0  0  0  0  0  0  0  0  0  0
   -3.0961   -0.5840    0.1847 H   0  0  0  0  0  0  0  0  0  0  0  0
   -2.2556    0.4050   -1.1228 H   0  0  0  0  0  0  0  0  0  0  0  0
    0.4686   -1.9028   -1.2367 H   0  0  0  0  0  0  0  0  0  0  0  0
   -0.1040   -0.2990   -1.7265 H   0  0  0  0  0  0  0  0  0  0  0  0
  1  2  1  0
  2  3  1  0
  3  4  1  0
  4  5  1  0
  5  6  1  0
  6  7  1  0
  7  8  1  0
  8  3  1  0
  1  9  1  0
  2 10  1  0
  2 11  1  0
  3 12  1  0
  4 13  1  0
  4 14  1  0
  5 15  1  0
  5 16  1  0
  6 17  1  0
  6 18  1  0
  8 19  1  0
  8 20  1  0
M  END
