
     RDKit          3D

 18 19  0  0  0  0  0  0  0  0999 V2000
    2.6684    0.8178   -0.1396 O   0  0  0  0  0  0  0  0  0  0  0  0
    1.7707    0.0490   -0.8946 C   0  0  0  0  0  0  0  0  0  0  0  0
    0.5751   -0.2483   -0.0475 C   0  0  0  0  0  0  0  0  0  0  0  0
   -0.1927    0.9325    0.4546 C   0  0  0  0  0  0  0  0  0  0  0  0
   -1.3848    0.2894    1.1692 C   0  0  0  0  0  0  0  0  0  0  0  0
   -1.7031   -0.7610    0.0858 C   0  0  0  0  0  0  0  0  0  0  0  0
   -0.6737   -0.3084   -0.9135 C   0  0  0  0  0  0  0  0  0  0  0  0
   -0.6870    1.0864   -0.8327 O   0  0  0  0  0  0  0  0  0  0  0  0
    2.8415    0.2655    0.6855 H   0  0  0  0  0  0  0  0  0  0  0  0
    1.5324    0.4831   -1.8631 H   0  0  0  0  0  0  0  0  0  0  0  0
    2.3043   -0.9172   -1.0838 H   0  0  0  0  0  0  0  0  0  0  0  0
    0.6687   -1.0245    0.7046 H   0  0  0  0  0  0  0  0  0  0  0  0
    0.3007    1.7384    0.9365 H   0  0  0  0  0  0  0  0  0  0  0  0
   -2.2237    0.9875    1.2752 H   0  0  0  0  0  0  0  0  0  0  0  0
   -1.0581   -0.1766    2.0993 H   0  0  0  0  0  0  0  0  0  0  0  0
   -1.3982   -1.7444    0.4867 H   0  0  0  0  0  0  0  0  0  0  0  0
   -2.7292   -0.6949   -0.2567 H   0  0  0  0  0  0  0  0  0  0  0  0
   -0.6113   -0.7741   -1.8657 H   0  0  0  0  0  0  0  0  0  0  0  0
  1  2  1  0
  2  3  1  0
  3  4  1  0
  4  5  1  0
  5  6  1  0
  6  7  1  0
  7  8  1  0
  7  3  1  0
  8  4  1  0
  1  9  1  0
  2 10  1  0
  2 11  1  0
  3 12  1  0
  4 13  1  0
  5 14  1  0
  5 15  1  0
  6 16  1  0
  6 17  1  0
  7 18  1  0
M  END
