
     RDKit          3D

 19 20  0  0  0  0  0  0  0  0999 V2000
   -2.7953   -0.0184    1.3465 O   0  0  0  0  0  0  0  0  0  0  0  0
   -2.1432   -0.3519    0.1608 C   0  0  0  0  0  0  0  0  0  0  0  0
   -0.6498   -0.3660    0.3679 C   0  0  0  0  0  0  0  0  0  0  0  0
    0.2891   -0.6823   -0.7003 C   0  0  0  0  0  0  0  0  0  0  0  0
    1.7173   -0.9525   -0.2985 C   0  0  0  0  0  0  0  0  0  0  0  0
    2.1930    0.2766    0.3707 C   0  0  0  0  0  0  0  0  0  0  0  0
    1.2815    1.2399    0.3326 C   0  0  0  0  0  0  0  0  0  0  0  0
    0.0858    0.7351   -0.3805 C   0  0  0  0  0  0  0  0  0  0  0  0
   -0.6416    1.5800   -1.2050 O   0  0  0  0  0  0  0  0  0  0  0  0
   -2.5145   -0.6262    2.0886 H   0  0  0  0  0  0  0  0  0  0  0  0
   -2.4560    0.4371   -0.5838 H   0  0  0  0  0  0  0  0  0  0  0  0
   -2.5357   -1.3033   -0.2511 H   0  0  0  0  0  0  0  0  0  0  0  0
   -0.3478   -0.6025    1.3991 H   0  0  0  0  0  0  0  0  0  0  0  0
   -0.0031   -1.0047   -1.7174 H   0  0  0  0  0  0  0  0  0  0  0  0
    2.3262   -1.2520   -1.1540 H   0  0  0  0  0  0  0  0  0  0  0  0
    1.6862   -1.7530    0.4750 H   0  0  0  0  0  0  0  0  0  0  0  0
    3.1592    0.3801    0.8327 H   0  0  0  0  0  0  0  0  0  0  0  0
    1.3407    2.2456    0.7355 H   0  0  0  0  0  0  0  0  0  0  0  0
    0.0080    2.0183   -1.8185 H   0  0  0  0  0  0  0  0  0  0  0  0
  1  2  1  0
  2  3  1  0
  3  4  1  0
  4  5  1  0
  5  6  1  0
  6  7  2  0
  7  8  1  0
  8  9  1  0
  8  3  1  0
  8  4  1  0
  1 10  1  0
  2 11  1  0
  2 12  1  0
  3 13  1  0
  4 14  1  0
  5 15  1  0
  5 16  1  0
  6 17  1  0
  7 18  1  0
  9 19  1  0
M  END
