
     RDKit          3D

 19 20  0  0  0  0  0  0  0  0999 V2000
    2.2341   -0.1994    0.6114 O   0  0  0  0  0  0  0  0  0  0  0  0
    1.6608    0.1712   -0.6107 C   0  0  0  0  0  0  0  0  0  0  0  0
    0.1880   -0.0880   -0.5113 C   0  0  0  0  0  0  0  0  0  0  0  0
   -0.2141   -1.5193   -0.2400 C   0  0  0  0  0  0  0  0  0  0  0  0
   -1.1405   -1.3938    0.9185 C   0  0  0  0  0  0  0  0  0  0  0  0
   -1.3591   -0.1229    1.2239 C   0  0  0  0  0  0  0  0  0  0  0  0
   -0.6179    0.7900    0.3233 C   0  0  0  0  0  0  0  0  0  0  0  0
   -0.1520    1.9734    0.8690 O   0  0  0  0  0  0  0  0  0  0  0  0
   -0.8236    0.7676   -1.1277 C   0  0  0  0  0  0  0  0  0  0  0  0
    3.0114    0.3827    0.8053 H   0  0  0  0  0  0  0  0  0  0  0  0
    2.1202   -0.4974   -1.3883 H   0  0  0  0  0  0  0  0  0  0  0  0
    1.9227    1.1960   -0.8498 H   0  0  0  0  0  0  0  0  0  0  0  0
   -0.7223   -1.9436   -1.1288 H   0  0  0  0  0  0  0  0  0  0  0  0
    0.6685   -2.1024    0.0431 H   0  0  0  0  0  0  0  0  0  0  0  0
   -1.6066   -2.2296    1.4780 H   0  0  0  0  0  0  0  0  0  0  0  0
   -2.0185    0.1954    2.0542 H   0  0  0  0  0  0  0  0  0  0  0  0
   -0.8538    2.6573    0.7210 H   0  0  0  0  0  0  0  0  0  0  0  0
   -0.5342    1.6700   -1.7089 H   0  0  0  0  0  0  0  0  0  0  0  0
   -1.7632    0.2928   -1.4824 H   0  0  0  0  0  0  0  0  0  0  0  0
  1  2  1  0
  2  3  1  0
  3  4  1  0
  4  5  1  0
  5  6  2  0
  6  7  1  0
  7  8  1  0
  7  9  1  0
  7  3  1  0
  9  3  1  0
  1 10  1  0
  2 11  1  0
  2 12  1  0
  4 13  1  0
  4 14  1  0
  5 15  1  0
  6 16  1  0
  8 17  1  0
  9 18  1  0
  9 19  1  0
M  END
