
     RDKit          3D

 19 20  0  0  0  0  0  0  0  0999 V2000
    3.2179    0.2306    0.4542 O   0  0  0  0  0  0  0  0  0  0  0  0
    2.1070   -0.5252    0.7555 C   0  0  0  0  0  0  0  0  0  0  0  0
    0.8836    0.0599    0.1288 C   0  0  0  0  0  0  0  0  0  0  0  0
    0.8622    0.1727   -1.2364 O   0  0  0  0  0  0  0  0  0  0  0  0
   -0.4526   -0.2645   -1.2518 C   0  0  0  0  0  0  0  0  0  0  0  0
   -1.4886    0.7907   -0.9629 C   0  0  0  0  0  0  0  0  0  0  0  0
   -2.0859    0.3382    0.3264 C   0  0  0  0  0  0  0  0  0  0  0  0
   -1.2620   -0.5773    0.9134 O   0  0  0  0  0  0  0  0  0  0  0  0
   -0.2471   -0.9096    0.0703 C   0  0  0  0  0  0  0  0  0  0  0  0
    2.9401    1.0454    0.0092 H   0  0  0  0  0  0  0  0  0  0  0  0
    2.2986   -1.5767    0.4820 H   0  0  0  0  0  0  0  0  0  0  0  0
    1.9562   -0.5162    1.8600 H   0  0  0  0  0  0  0  0  0  0  0  0
    0.6234    1.0076    0.6855 H   0  0  0  0  0  0  0  0  0  0  0  0
   -0.6440   -0.9007   -2.1129 H   0  0  0  0  0  0  0  0  0  0  0  0
   -2.2912    0.7209   -1.7474 H   0  0  0  0  0  0  0  0  0  0  0  0
   -1.0465    1.8028   -0.9318 H   0  0  0  0  0  0  0  0  0  0  0  0
   -2.2915    1.2414    0.9711 H   0  0  0  0  0  0  0  0  0  0  0  0
   -3.0912   -0.1581    0.1951 H   0  0  0  0  0  0  0  0  0  0  0  0
    0.0114   -1.9819    0.0501 H   0  0  0  0  0  0  0  0  0  0  0  0
  1  2  1  0
  2  3  1  0
  3  4  1  0
  4  5  1  0
  5  6  1  0
  6  7  1  0
  7  8  1  0
  8  9  1  0
  9  3  1  0
  9  5  1  0
  1 10  1  0
  2 11  1  0
  2 12  1  0
  3 13  1  0
  5 14  1  0
  6 15  1  0
  6 16  1  0
  7 17  1  0
  7 18  1  0
  9 19  1  0
M  END
