
     RDKit          3D

 19 19  0  0  0  0  0  0  0  0999 V2000
   -2.6980    0.0127    0.8195 O   0  0  0  0  0  0  0  0  0  0  0  0
   -2.1767    0.7630   -0.2308 C   0  0  0  0  0  0  0  0  0  0  0  0
   -0.7063    0.4186   -0.3001 C   0  0  0  0  0  0  0  0  0  0  0  0
    0.1412    1.4121   -0.1349 C   0  0  0  0  0  0  0  0  0  0  0  0
    1.6061    1.2887   -0.1649 C   0  0  0  0  0  0  0  0  0  0  0  0
    2.3508    0.2075    0.1463 C   0  0  0  0  0  0  0  0  0  0  0  0
    1.7889   -1.0758    0.5843 C   0  0  0  0  0  0  0  0  0  0  0  0
    0.6059   -1.5778    0.2812 C   0  0  0  0  0  0  0  0  0  0  0  0
   -0.4682   -1.0162   -0.5620 C   0  0  0  0  0  0  0  0  0  0  0  0
   -2.0280   -0.5950    1.2090 H   0  0  0  0  0  0  0  0  0  0  0  0
   -2.3032    1.8443   -0.0093 H   0  0  0  0  0  0  0  0  0  0  0  0
   -2.6774    0.4433   -1.1469 H   0  0  0  0  0  0  0  0  0  0  0  0
   -0.2653    2.3983    0.0326 H   0  0  0  0  0  0  0  0  0  0  0  0
    2.1538    2.1636   -0.4689 H   0  0  0  0  0  0  0  0  0  0  0  0
    3.4049    0.2569    0.0821 H   0  0  0  0  0  0  0  0  0  0  0  0
    2.4048   -1.7015    1.2317 H   0  0  0  0  0  0  0  0  0  0  0  0
    0.3532   -2.5569    0.7029 H   0  0  0  0  0  0  0  0  0  0  0  0
   -1.4046   -1.6029   -0.4499 H   0  0  0  0  0  0  0  0  0  0  0  0
   -0.0820   -1.0830   -1.6219 H   0  0  0  0  0  0  0  0  0  0  0  0
  1  2  1  0
  2  3  1  0
  3  4  2  0
  4  5  1  0
  5  6  2  0
  6  7  1  0
  7  8  2  0
  8  9  1  0
  9  3  1  0
  1 10  1  0
  2 11  1  0
  2 12  1  0
  4 13  1  0
  5 14  1  0
  6 15  1  0
  7 16  1  0
  8 17  1  0
  9 18  1  0
  9 19  1  0
M  END
