
     RDKit          3D

 21 21  0  0  0  0  0  0  0  0999 V2000
    0.6356   -1.6783   -0.7936 O   0  0  0  0  0  0  0  0  0  0  0  0
    1.3509   -1.0730    0.1925 C   0  0  0  0  0  0  0  0  0  0  0  0
    0.6799   -0.0498    1.0241 C   0  0  0  0  0  0  0  0  0  0  0  0
    0.1275    1.1770    0.3038 C   0  0  0  0  0  0  0  0  0  0  0  0
    0.2450    1.2602   -1.1757 C   0  0  0  0  0  0  0  0  0  0  0  0
    1.5958    1.2243   -1.5433 O   0  0  0  0  0  0  0  0  0  0  0  0
   -0.7357    0.2844    1.0661 C   0  0  0  0  0  0  0  0  0  0  0  0
   -1.8352   -0.5636    0.5239 C   0  0  0  0  0  0  0  0  0  0  0  0
   -1.8131   -0.8491   -0.8068 O   0  0  0  0  0  0  0  0  0  0  0  0
    0.5358   -2.6594   -0.6785 H   0  0  0  0  0  0  0  0  0  0  0  0
    2.3197   -0.6798   -0.2402 H   0  0  0  0  0  0  0  0  0  0  0  0
    1.7088   -1.8953    0.8833 H   0  0  0  0  0  0  0  0  0  0  0  0
    1.2919    0.1783    1.9581 H   0  0  0  0  0  0  0  0  0  0  0  0
    0.4553    2.1574    0.7815 H   0  0  0  0  0  0  0  0  0  0  0  0
   -0.1049    2.2903   -1.4857 H   0  0  0  0  0  0  0  0  0  0  0  0
   -0.2774    0.5211   -1.7701 H   0  0  0  0  0  0  0  0  0  0  0  0
    2.1850    1.6347   -0.8619 H   0  0  0  0  0  0  0  0  0  0  0  0
   -1.0759    0.7510    2.0619 H   0  0  0  0  0  0  0  0  0  0  0  0
   -2.8505   -0.0984    0.7191 H   0  0  0  0  0  0  0  0  0  0  0  0
   -1.8893   -1.4943    1.1703 H   0  0  0  0  0  0  0  0  0  0  0  0
   -2.5490   -0.4378   -1.3287 H   0  0  0  0  0  0  0  0  0  0  0  0
  1  2  1  0
  2  3  1  0
  3  4  1  0
  4  5  1  0
  5  6  1  0
  4  7  1  0
  7  8  1  0
  8  9  1  0
  7  3  1  0
  1 10  1  0
  2 11  1  0
  2 12  1  0
  3 13  1  0
  4 14  1  0
  5 15  1  0
  5 16  1  0
  6 17  1  0
  7 18  1  0
  8 19  1  0
  8 20  1  0
  9 21  1  0
M  END
