
     RDKit          3D

 20 20  0  0  0  0  0  0  0  0999 V2000
    2.7336   -0.5051   -0.4001 O   0  0  0  0  0  0  0  0  0  0  0  0
    1.7476    0.4642   -0.6367 C   0  0  0  0  0  0  0  0  0  0  0  0
    0.5349    0.0661    0.1388 C   0  0  0  0  0  0  0  0  0  0  0  0
   -0.0119   -1.2887   -0.2592 C   0  0  0  0  0  0  0  0  0  0  0  0
   -1.2567   -1.3002    0.6177 C   0  0  0  0  0  0  0  0  0  0  0  0
   -1.7905    0.1010    0.4210 C   0  0  0  0  0  0  0  0  0  0  0  0
   -0.6709    0.9243   -0.1532 C   0  0  0  0  0  0  0  0  0  0  0  0
   -0.5839    2.1896    0.3577 O   0  0  0  0  0  0  0  0  0  0  0  0
    3.2979   -0.2690    0.3941 H   0  0  0  0  0  0  0  0  0  0  0  0
    1.5152    0.5797   -1.6959 H   0  0  0  0  0  0  0  0  0  0  0  0
    2.1107    1.4240   -0.2208 H   0  0  0  0  0  0  0  0  0  0  0  0
    0.7017    0.0638    1.2165 H   0  0  0  0  0  0  0  0  0  0  0  0
    0.6717   -2.1153   -0.0388 H   0  0  0  0  0  0  0  0  0  0  0  0
   -0.3743   -1.2857   -1.3086 H   0  0  0  0  0  0  0  0  0  0  0  0
   -1.9611   -2.0800    0.3451 H   0  0  0  0  0  0  0  0  0  0  0  0
   -0.8952   -1.3558    1.6653 H   0  0  0  0  0  0  0  0  0  0  0  0
   -2.6922    0.0906   -0.2255 H   0  0  0  0  0  0  0  0  0  0  0  0
   -2.1027    0.5532    1.3858 H   0  0  0  0  0  0  0  0  0  0  0  0
   -0.8093    0.9743   -1.2718 H   0  0  0  0  0  0  0  0  0  0  0  0
   -0.1646    2.7688   -0.3315 H   0  0  0  0  0  0  0  0  0  0  0  0
  1  2  1  0
  2  3  1  0
  3  4  1  0
  4  5  1  0
  5  6  1  0
  6  7  1  0
  7  8  1  0
  7  3  1  0
  1  9  1  0
  2 10  1  0
  2 11  1  0
  3 12  1  0
  4 13  1  0
  4 14  1  0
  5 15  1  0
  5 16  1  0
  6 17  1  0
  6 18  1  0
  7 19  1  0
  8 20  1  0
M  END
