
     RDKit          3D

 21 22  0  0  0  0  0  0  0  0999 V2000
    2.5355   -0.7052   -0.3625 O   0  0  0  0  0  0  0  0  0  0  0  0
    1.8021    0.4190   -0.0306 C   0  0  0  0  0  0  0  0  0  0  0  0
    0.4753    0.0534    0.5330 C   0  0  0  0  0  0  0  0  0  0  0  0
   -0.4270    1.1983    0.9377 C   0  0  0  0  0  0  0  0  0  0  0  0
   -1.4554    1.2798   -0.1674 C   0  0  0  0  0  0  0  0  0  0  0  0
   -1.6447   -0.1550   -0.5454 C   0  0  0  0  0  0  0  0  0  0  0  0
   -0.3492   -0.8716   -0.3258 C   0  0  0  0  0  0  0  0  0  0  0  0
    0.2476   -1.5152   -1.4093 O   0  0  0  0  0  0  0  0  0  0  0  0
    0.1215   -1.2871    1.0043 C   0  0  0  0  0  0  0  0  0  0  0  0
    3.0513   -0.4749   -1.1885 H   0  0  0  0  0  0  0  0  0  0  0  0
    2.4238    1.0234    0.6639 H   0  0  0  0  0  0  0  0  0  0  0  0
    1.6263    1.0525   -0.9398 H   0  0  0  0  0  0  0  0  0  0  0  0
   -0.8866    0.9931    1.9303 H   0  0  0  0  0  0  0  0  0  0  0  0
    0.1468    2.1435    0.9130 H   0  0  0  0  0  0  0  0  0  0  0  0
   -2.3990    1.7267    0.2194 H   0  0  0  0  0  0  0  0  0  0  0  0
   -1.0455    1.8622   -1.0151 H   0  0  0  0  0  0  0  0  0  0  0  0
   -1.8519   -0.1726   -1.6534 H   0  0  0  0  0  0  0  0  0  0  0  0
   -2.5115   -0.6385   -0.0684 H   0  0  0  0  0  0  0  0  0  0  0  0
   -0.0374   -2.4804   -1.3814 H   0  0  0  0  0  0  0  0  0  0  0  0
    0.8374   -2.1170    1.0757 H   0  0  0  0  0  0  0  0  0  0  0  0
   -0.6595   -1.3344    1.8102 H   0  0  0  0  0  0  0  0  0  0  0  0
  1  2  1  0
  2  3  1  0
  3  4  1  0
  4  5  1  0
  5  6  1  0
  6  7  1  0
  7  8  1  0
  7  9  1  0
  7  3  1  0
  9  3  1  0
  1 10  1  0
  2 11  1  0
  2 12  1  0
  4 13  1  0
  4 14  1  0
  5 15  1  0
  5 16  1  0
  6 17  1  0
  6 18  1  0
  8 19  1  0
  9 20  1  0
  9 21  1  0
M  END
