
     RDKit          3D

 19 20  0  0  0  0  0  0  0  0999 V2000
    2.3394    1.2594   -0.7247 O   0  0  0  0  0  0  0  0  0  0  0  0
    2.1410    0.0882   -0.0020 C   0  0  0  0  0  0  0  0  0  0  0  0
    0.6784   -0.2483    0.0687 C   0  0  0  0  0  0  0  0  0  0  0  0
   -0.2570    0.4820   -0.4853 C   0  0  0  0  0  0  0  0  0  0  0  0
   -1.1121    1.5052   -1.2153 C   0  0  0  0  0  0  0  0  0  0  0  0
   -2.1692    0.9650   -0.3973 O   0  0  0  0  0  0  0  0  0  0  0  0
   -1.5624   -0.2598   -0.2717 C   0  0  0  0  0  0  0  0  0  0  0  0
   -1.3388   -0.8796    1.0523 C   0  0  0  0  0  0  0  0  0  0  0  0
    0.1026   -1.4289    0.8214 C   0  0  0  0  0  0  0  0  0  0  0  0
    2.4016    1.9954   -0.0671 H   0  0  0  0  0  0  0  0  0  0  0  0
    2.5331    0.2047    1.0177 H   0  0  0  0  0  0  0  0  0  0  0  0
    2.6777   -0.7169   -0.5678 H   0  0  0  0  0  0  0  0  0  0  0  0
   -1.1831    1.2360   -2.2641 H   0  0  0  0  0  0  0  0  0  0  0  0
   -0.8689    2.5533   -0.9779 H   0  0  0  0  0  0  0  0  0  0  0  0
   -1.7662   -0.9915   -1.0819 H   0  0  0  0  0  0  0  0  0  0  0  0
   -1.9716   -1.7615    1.2652 H   0  0  0  0  0  0  0  0  0  0  0  0
   -1.3121   -0.1366    1.8608 H   0  0  0  0  0  0  0  0  0  0  0  0
    0.5853   -1.5682    1.7953 H   0  0  0  0  0  0  0  0  0  0  0  0
    0.0823   -2.2978    0.1739 H   0  0  0  0  0  0  0  0  0  0  0  0
  1  2  1  0
  2  3  1  0
  3  4  2  0
  4  5  1  0
  5  6  1  0
  6  7  1  0
  7  8  1  0
  8  9  1  0
  9  3  1  0
  7  4  1  0
  1 10  1  0
  2 11  1  0
  2 12  1  0
  5 13  1  0
  5 14  1  0
  7 15  1  0
  8 16  1  0
  8 17  1  0
  9 18  1  0
  9 19  1  0
M  END
