
     RDKit          3D

 18 20  0  0  0  0  0  0  0  0999 V2000
    3.1176    0.5374   -0.1860 O   0  0  0  0  0  0  0  0  0  0  0  0
    1.9426   -0.1533   -0.4748 C   0  0  0  0  0  0  0  0  0  0  0  0
    0.9977   -0.1889    0.7054 C   0  0  0  0  0  0  0  0  0  0  0  0
   -0.2753   -0.9104    0.4654 C   0  0  0  0  0  0  0  0  0  0  0  0
   -1.1138   -0.6556   -0.7497 C   0  0  0  0  0  0  0  0  0  0  0  0
   -2.4302    0.0272   -0.5813 C   0  0  0  0  0  0  0  0  0  0  0  0
   -1.1162    0.7849   -0.4528 C   0  0  0  0  0  0  0  0  0  0  0  0
   -0.2547    0.5580    0.7342 C   0  0  0  0  0  0  0  0  0  0  0  0
    2.9249    1.5182   -0.1354 H   0  0  0  0  0  0  0  0  0  0  0  0
    2.2606   -1.2250   -0.6426 H   0  0  0  0  0  0  0  0  0  0  0  0
    1.4655    0.1703   -1.4093 H   0  0  0  0  0  0  0  0  0  0  0  0
    1.4921   -0.3955    1.6594 H   0  0  0  0  0  0  0  0  0  0  0  0
   -0.6146   -1.6368    1.2022 H   0  0  0  0  0  0  0  0  0  0  0  0
   -0.8553   -1.0709   -1.7280 H   0  0  0  0  0  0  0  0  0  0  0  0
   -2.9820    0.2443   -1.5169 H   0  0  0  0  0  0  0  0  0  0  0  0
   -3.0185   -0.0571    0.3325 H   0  0  0  0  0  0  0  0  0  0  0  0
   -0.8876    1.5626   -1.2018 H   0  0  0  0  0  0  0  0  0  0  0  0
   -0.6529    0.8908    1.7211 H   0  0  0  0  0  0  0  0  0  0  0  0
  1  2  1  0
  2  3  1  0
  3  4  1  0
  4  5  1  0
  5  6  1  0
  6  7  1  0
  7  8  1  0
  8  3  1  0
  8  4  1  0
  7  5  1  0
  1  9  1  0
  2 10  1  0
  2 11  1  0
  3 12  1  0
  4 13  1  0
  5 14  1  0
  6 15  1  0
  6 16  1  0
  7 17  1  0
  8 18  1  0
M  END
