
     RDKit          3D

 19 20  0  0  0  0  0  0  0  0999 V2000
   -2.9341   -0.5342    0.3513 O   0  0  0  0  0  0  0  0  0  0  0  0
   -1.8166    0.2479    0.7228 C   0  0  0  0  0  0  0  0  0  0  0  0
   -0.9750    0.5513   -0.4859 C   0  0  0  0  0  0  0  0  0  0  0  0
   -0.4282   -0.6961   -1.2009 C   0  0  0  0  0  0  0  0  0  0  0  0
    0.5962   -0.7485   -0.1267 C   0  0  0  0  0  0  0  0  0  0  0  0
    1.9248   -0.8709   -0.4159 O   0  0  0  0  0  0  0  0  0  0  0  0
    2.5541    0.0573    0.4661 C   0  0  0  0  0  0  0  0  0  0  0  0
    1.6121    1.2355    0.3868 C   0  0  0  0  0  0  0  0  0  0  0  0
    0.4620    0.7473   -0.0309 C   0  0  0  0  0  0  0  0  0  0  0  0
   -2.9366   -1.3868    0.8618 H   0  0  0  0  0  0  0  0  0  0  0  0
   -1.2554   -0.1734    1.5454 H   0  0  0  0  0  0  0  0  0  0  0  0
   -2.2780    1.2045    1.1083 H   0  0  0  0  0  0  0  0  0  0  0  0
   -1.3548    1.3284   -1.1430 H   0  0  0  0  0  0  0  0  0  0  0  0
   -1.1621   -1.5501   -1.1843 H   0  0  0  0  0  0  0  0  0  0  0  0
   -0.0801   -0.4367   -2.2150 H   0  0  0  0  0  0  0  0  0  0  0  0
    0.2190   -1.3094    0.7522 H   0  0  0  0  0  0  0  0  0  0  0  0
    2.5216   -0.3034    1.5020 H   0  0  0  0  0  0  0  0  0  0  0  0
    3.5253    0.3738    0.1136 H   0  0  0  0  0  0  0  0  0  0  0  0
    1.8058    2.2635    0.6148 H   0  0  0  0  0  0  0  0  0  0  0  0
  1  2  1  0
  2  3  1  0
  3  4  1  0
  4  5  1  0
  5  6  1  0
  6  7  1  0
  7  8  1  0
  8  9  2  0
  9  3  1  0
  9  5  1  0
  1 10  1  0
  2 11  1  0
  2 12  1  0
  3 13  1  0
  4 14  1  0
  4 15  1  0
  5 16  1  0
  7 17  1  0
  7 18  1  0
  8 19  1  0
M  END
