
     RDKit          3D

 19 20  0  0  0  0  0  0  0  0999 V2000
    2.5460   -0.2001    0.8201 O   0  0  0  0  0  0  0  0  0  0  0  0
    1.7266   -0.0750   -0.2679 C   0  0  0  0  0  0  0  0  0  0  0  0
    0.3637   -0.6113    0.0386 C   0  0  0  0  0  0  0  0  0  0  0  0
   -0.5671   -0.4756   -1.1790 C   0  0  0  0  0  0  0  0  0  0  0  0
   -1.8786   -0.7052   -0.4575 C   0  0  0  0  0  0  0  0  0  0  0  0
   -1.6943   -0.2754    0.8644 O   0  0  0  0  0  0  0  0  0  0  0  0
   -0.4691    0.3872    0.8643 C   0  0  0  0  0  0  0  0  0  0  0  0
   -0.5667    1.4900   -0.1546 C   0  0  0  0  0  0  0  0  0  0  0  0
   -0.4697    0.8865   -1.4177 O   0  0  0  0  0  0  0  0  0  0  0  0
    3.3394   -0.7888    0.6744 H   0  0  0  0  0  0  0  0  0  0  0  0
    2.1481   -0.7263   -1.0806 H   0  0  0  0  0  0  0  0  0  0  0  0
    1.6453    0.9244   -0.6843 H   0  0  0  0  0  0  0  0  0  0  0  0
    0.3385   -1.6097    0.4709 H   0  0  0  0  0  0  0  0  0  0  0  0
   -0.3427   -1.1269   -1.9821 H   0  0  0  0  0  0  0  0  0  0  0  0
   -2.0396   -1.8230   -0.4730 H   0  0  0  0  0  0  0  0  0  0  0  0
   -2.7248   -0.1966   -0.9440 H   0  0  0  0  0  0  0  0  0  0  0  0
   -0.0567    0.6271    1.8106 H   0  0  0  0  0  0  0  0  0  0  0  0
    0.2302    2.2524   -0.0601 H   0  0  0  0  0  0  0  0  0  0  0  0
   -1.5286    2.0463   -0.0910 H   0  0  0  0  0  0  0  0  0  0  0  0
  1  2  1  0
  2  3  1  0
  3  4  1  0
  4  5  1  0
  5  6  1  0
  6  7  1  0
  7  8  1  0
  8  9  1  0
  7  3  1  0
  9  4  1  0
  1 10  1  0
  2 11  1  0
  2 12  1  0
  3 13  1  0
  4 14  1  0
  5 15  1  0
  5 16  1  0
  7 17  1  0
  8 18  1  0
  8 19  1  0
M  END
