
     RDKit          3D

 19 20  0  0  0  0  0  0  0  0999 V2000
   -2.9605   -0.6739    0.3150 O   0  0  0  0  0  0  0  0  0  0  0  0
   -1.9876   -0.2995   -0.5829 C   0  0  0  0  0  0  0  0  0  0  0  0
   -0.6644    0.0241    0.1140 C   0  0  0  0  0  0  0  0  0  0  0  0
    0.0852   -1.1440    0.6281 C   0  0  0  0  0  0  0  0  0  0  0  0
    1.4324   -1.0089    0.7324 O   0  0  0  0  0  0  0  0  0  0  0  0
    2.0380   -0.2591   -0.2396 C   0  0  0  0  0  0  0  0  0  0  0  0
    1.4844    1.1581   -0.1346 C   0  0  0  0  0  0  0  0  0  0  0  0
   -0.0010    1.1978   -0.1740 C   0  0  0  0  0  0  0  0  0  0  0  0
   -0.7106    1.0832    1.0669 O   0  0  0  0  0  0  0  0  0  0  0  0
   -2.5703   -0.5659    1.2274 H   0  0  0  0  0  0  0  0  0  0  0  0
   -2.2771    0.5683   -1.2139 H   0  0  0  0  0  0  0  0  0  0  0  0
   -1.7937   -1.1356   -1.2604 H   0  0  0  0  0  0  0  0  0  0  0  0
   -0.3138   -1.3782    1.6587 H   0  0  0  0  0  0  0  0  0  0  0  0
   -0.1507   -2.0344   -0.0042 H   0  0  0  0  0  0  0  0  0  0  0  0
    1.9515   -0.6778   -1.2408 H   0  0  0  0  0  0  0  0  0  0  0  0
    3.1213   -0.1811    0.0161 H   0  0  0  0  0  0  0  0  0  0  0  0
    1.9183    1.7617   -0.9512 H   0  0  0  0  0  0  0  0  0  0  0  0
    1.8327    1.5590    0.8305 H   0  0  0  0  0  0  0  0  0  0  0  0
   -0.4341    2.0063   -0.7874 H   0  0  0  0  0  0  0  0  0  0  0  0
  1  2  1  0
  2  3  1  0
  3  4  1  0
  4  5  1  0
  5  6  1  0
  6  7  1  0
  7  8  1  0
  8  9  1  0
  8  3  1  0
  9  3  1  0
  1 10  1  0
  2 11  1  0
  2 12  1  0
  4 13  1  0
  4 14  1  0
  6 15  1  0
  6 16  1  0
  7 17  1  0
  7 18  1  0
  8 19  1  0
M  END
