
     RDKit          3D

 21 21  0  0  0  0  0  0  0  0999 V2000
    3.3358   -0.4905   -0.3642 O   0  0  0  0  0  0  0  0  0  0  0  0
    2.3688   -0.2568    0.5767 C   0  0  0  0  0  0  0  0  0  0  0  0
    0.9749   -0.5930    0.1285 C   0  0  0  0  0  0  0  0  0  0  0  0
   -0.0040   -0.2877    1.2657 C   0  0  0  0  0  0  0  0  0  0  0  0
   -0.8911    0.4309    0.2526 C   0  0  0  0  0  0  0  0  0  0  0  0
   -1.3165    1.6524    0.7123 O   0  0  0  0  0  0  0  0  0  0  0  0
   -2.0216   -0.4787   -0.1823 C   0  0  0  0  0  0  0  0  0  0  0  0
   -2.7429    0.1202   -1.2134 O   0  0  0  0  0  0  0  0  0  0  0  0
    0.2848    0.4919   -0.6704 C   0  0  0  0  0  0  0  0  0  0  0  0
    3.1024   -0.2027   -1.2650 H   0  0  0  0  0  0  0  0  0  0  0  0
    2.3688    0.7807    0.9577 H   0  0  0  0  0  0  0  0  0  0  0  0
    2.5920   -0.9136    1.4548 H   0  0  0  0  0  0  0  0  0  0  0  0
    0.8375   -1.5855   -0.3262 H   0  0  0  0  0  0  0  0  0  0  0  0
   -0.4235   -1.2204    1.6400 H   0  0  0  0  0  0  0  0  0  0  0  0
    0.3966    0.4188    2.0094 H   0  0  0  0  0  0  0  0  0  0  0  0
   -1.7630    2.1617    0.0134 H   0  0  0  0  0  0  0  0  0  0  0  0
   -1.6416   -1.4776   -0.4662 H   0  0  0  0  0  0  0  0  0  0  0  0
   -2.6852   -0.5906    0.7122 H   0  0  0  0  0  0  0  0  0  0  0  0
   -3.6596    0.3680   -0.9582 H   0  0  0  0  0  0  0  0  0  0  0  0
    0.0390    0.2267   -1.7161 H   0  0  0  0  0  0  0  0  0  0  0  0
    0.8483    1.4458   -0.5561 H   0  0  0  0  0  0  0  0  0  0  0  0
  1  2  1  0
  2  3  1  0
  3  4  1  0
  4  5  1  0
  5  6  1  0
  5  7  1  0
  7  8  1  0
  5  9  1  0
  9  3  1  0
  1 10  1  0
  2 11  1  0
  2 12  1  0
  3 13  1  0
  4 14  1  0
  4 15  1  0
  6 16  1  0
  7 17  1  0
  7 18  1  0
  8 19  1  0
  9 20  1  0
  9 21  1  0
M  END
