
     RDKit          3D

 21 22  0  0  0  0  0  0  0  0999 V2000
   -1.9657    1.7199    0.4358 O   0  0  0  0  0  0  0  0  0  0  0  0
   -1.7740    0.5612   -0.2729 C   0  0  0  0  0  0  0  0  0  0  0  0
   -0.8503   -0.4243    0.4445 C   0  0  0  0  0  0  0  0  0  0  0  0
   -0.7233   -1.6536   -0.4399 C   0  0  0  0  0  0  0  0  0  0  0  0
    0.5808   -1.0298   -0.9118 C   0  0  0  0  0  0  0  0  0  0  0  0
    1.6512   -1.1035    0.1035 C   0  0  0  0  0  0  0  0  0  0  0  0
    0.5984   -0.1020    0.2135 C   0  0  0  0  0  0  0  0  0  0  0  0
    0.9861    1.3298    0.1348 C   0  0  0  0  0  0  0  0  0  0  0  0
    2.3624    1.4061   -0.0816 O   0  0  0  0  0  0  0  0  0  0  0  0
   -2.8028    2.1362    0.1712 H   0  0  0  0  0  0  0  0  0  0  0  0
   -1.3552    0.7487   -1.2861 H   0  0  0  0  0  0  0  0  0  0  0  0
   -2.7414    0.0634   -0.3996 H   0  0  0  0  0  0  0  0  0  0  0  0
   -1.1604   -0.6141    1.4784 H   0  0  0  0  0  0  0  0  0  0  0  0
   -1.4978   -1.7727   -1.1982 H   0  0  0  0  0  0  0  0  0  0  0  0
   -0.5485   -2.5507    0.2223 H   0  0  0  0  0  0  0  0  0  0  0  0
    0.7263   -0.7550   -1.9452 H   0  0  0  0  0  0  0  0  0  0  0  0
    2.6389   -0.7856   -0.2308 H   0  0  0  0  0  0  0  0  0  0  0  0
    1.6825   -1.9641    0.8121 H   0  0  0  0  0  0  0  0  0  0  0  0
    0.8062    1.8831    1.0876 H   0  0  0  0  0  0  0  0  0  0  0  0
    0.5093    1.8760   -0.7063 H   0  0  0  0  0  0  0  0  0  0  0  0
    2.8773    1.0312    0.6860 H   0  0  0  0  0  0  0  0  0  0  0  0
  1  2  1  0
  2  3  1  0
  3  4  1  0
  4  5  1  0
  5  6  1  0
  6  7  1  0
  7  8  1  0
  8  9  1  0
  7  3  1  0
  7  5  1  0
  1 10  1  0
  2 11  1  0
  2 12  1  0
  3 13  1  0
  4 14  1  0
  4 15  1  0
  5 16  1  0
  6 17  1  0
  6 18  1  0
  8 19  1  0
  8 20  1  0
  9 21  1  0
M  END
