
     RDKit          3D

 19 19  0  0  0  0  0  0  0  0999 V2000
   -2.1545   -0.3580    1.7512 O   0  0  0  0  0  0  0  0  0  0  0  0
   -1.5667   -0.5742    0.5288 C   0  0  0  0  0  0  0  0  0  0  0  0
   -0.5273    0.4625    0.1650 C   0  0  0  0  0  0  0  0  0  0  0  0
   -0.9834    1.7509    0.0893 O   0  0  0  0  0  0  0  0  0  0  0  0
    0.2999   -0.0185   -1.0143 C   0  0  0  0  0  0  0  0  0  0  0  0
    1.1833   -0.7121    0.0141 C   0  0  0  0  0  0  0  0  0  0  0  0
    2.5381   -0.7010   -0.3011 O   0  0  0  0  0  0  0  0  0  0  0  0
    0.7560    0.3809    0.9737 C   0  0  0  0  0  0  0  0  0  0  0  0
    1.5244    1.5258    0.7308 O   0  0  0  0  0  0  0  0  0  0  0  0
   -2.1765   -1.2126    2.2731 H   0  0  0  0  0  0  0  0  0  0  0  0
   -1.1633   -1.6046    0.4777 H   0  0  0  0  0  0  0  0  0  0  0  0
   -2.3377   -0.5280   -0.2960 H   0  0  0  0  0  0  0  0  0  0  0  0
   -1.1767    2.0254   -0.8218 H   0  0  0  0  0  0  0  0  0  0  0  0
   -0.2363   -0.6696   -1.7006 H   0  0  0  0  0  0  0  0  0  0  0  0
    0.8212    0.8588   -1.4713 H   0  0  0  0  0  0  0  0  0  0  0  0
    0.8621   -1.7256    0.2628 H   0  0  0  0  0  0  0  0  0  0  0  0
    2.6533   -1.3594   -1.0396 H   0  0  0  0  0  0  0  0  0  0  0  0
    0.6483    0.0978    2.0169 H   0  0  0  0  0  0  0  0  0  0  0  0
    1.0358    2.3613    0.9308 H   0  0  0  0  0  0  0  0  0  0  0  0
  1  2  1  0
  2  3  1  0
  3  4  1  0
  3  5  1  0
  5  6  1  0
  6  7  1  0
  6  8  1  0
  8  9  1  0
  8  3  1  0
  1 10  1  0
  2 11  1  0
  2 12  1  0
  4 13  1  0
  5 14  1  0
  5 15  1  0
  6 16  1  0
  7 17  1  0
  8 18  1  0
  9 19  1  0
M  END
