
     RDKit          3D

 17 18  0  0  0  0  0  0  0  0999 V2000
   -3.0071   -0.5499   -0.0394 O   0  0  0  0  0  0  0  0  0  0  0  0
   -2.2812    0.5949   -0.2569 C   0  0  0  0  0  0  0  0  0  0  0  0
   -0.7931    0.3861   -0.2067 C   0  0  0  0  0  0  0  0  0  0  0  0
   -0.3589   -0.0967    1.0127 O   0  0  0  0  0  0  0  0  0  0  0  0
    0.8923   -0.6579    0.7390 C   0  0  0  0  0  0  0  0  0  0  0  0
    1.8546    0.1648   -0.0845 C   0  0  0  0  0  0  0  0  0  0  0  0
    3.1975   -0.1585   -0.0068 O   0  0  0  0  0  0  0  0  0  0  0  0
    0.9733   -0.7745   -0.7684 C   0  0  0  0  0  0  0  0  0  0  0  0
   -0.3153   -0.4842   -1.1544 O   0  0  0  0  0  0  0  0  0  0  0  0
   -2.8954   -0.8366    0.8981 H   0  0  0  0  0  0  0  0  0  0  0  0
   -2.5079    0.9919   -1.2864 H   0  0  0  0  0  0  0  0  0  0  0  0
   -2.5213    1.4236    0.4484 H   0  0  0  0  0  0  0  0  0  0  0  0
   -0.3293    1.3910   -0.4279 H   0  0  0  0  0  0  0  0  0  0  0  0
    1.2584   -1.4917    1.3528 H   0  0  0  0  0  0  0  0  0  0  0  0
    1.6757    1.2722   -0.0653 H   0  0  0  0  0  0  0  0  0  0  0  0
    3.7178    0.5197   -0.5238 H   0  0  0  0  0  0  0  0  0  0  0  0
    1.4398   -1.6941   -1.2070 H   0  0  0  0  0  0  0  0  0  0  0  0
  1  2  1  0
  2  3  1  0
  3  4  1  0
  4  5  1  0
  5  6  1  0
  6  7  1  0
  6  8  1  0
  8  9  1  0
  9  3  1  0
  8  5  1  0
  1 10  1  0
  2 11  1  0
  2 12  1  0
  3 13  1  0
  5 14  1  0
  6 15  1  0
  7 16  1  0
  8 17  1  0
M  END
