
     RDKit          3D

 21 22  0  0  0  0  0  0  0  0999 V2000
    3.1387    0.2101   -1.0299 O   0  0  0  0  0  0  0  0  0  0  0  0
    2.3601    0.9843   -0.1621 C   0  0  0  0  0  0  0  0  0  0  0  0
    0.9681    0.4645   -0.1200 C   0  0  0  0  0  0  0  0  0  0  0  0
   -0.1000    1.1630   -0.4611 C   0  0  0  0  0  0  0  0  0  0  0  0
   -1.3519    0.3786   -0.3156 C   0  0  0  0  0  0  0  0  0  0  0  0
   -1.9473    0.3718    1.0652 C   0  0  0  0  0  0  0  0  0  0  0  0
   -1.8418   -1.1401    1.0503 C   0  0  0  0  0  0  0  0  0  0  0  0
   -0.8724   -1.0152   -0.0874 C   0  0  0  0  0  0  0  0  0  0  0  0
    0.5773   -0.9063    0.3081 C   0  0  0  0  0  0  0  0  0  0  0  0
    3.7878   -0.3556   -0.5564 H   0  0  0  0  0  0  0  0  0  0  0  0
    2.4140    2.0218   -0.5507 H   0  0  0  0  0  0  0  0  0  0  0  0
    2.7701    1.0087    0.8635 H   0  0  0  0  0  0  0  0  0  0  0  0
   -0.0794    2.1975   -0.8112 H   0  0  0  0  0  0  0  0  0  0  0  0
   -2.0818    0.5038   -1.1397 H   0  0  0  0  0  0  0  0  0  0  0  0
   -1.3552    0.8689    1.8520 H   0  0  0  0  0  0  0  0  0  0  0  0
   -2.9891    0.7500    1.0249 H   0  0  0  0  0  0  0  0  0  0  0  0
   -2.8021   -1.6042    0.8141 H   0  0  0  0  0  0  0  0  0  0  0  0
   -1.3608   -1.5469    1.9602 H   0  0  0  0  0  0  0  0  0  0  0  0
   -1.1031   -1.6748   -0.9346 H   0  0  0  0  0  0  0  0  0  0  0  0
    1.1611   -1.6120   -0.3120 H   0  0  0  0  0  0  0  0  0  0  0  0
    0.7077   -1.0680    1.3868 H   0  0  0  0  0  0  0  0  0  0  0  0
  1  2  1  0
  2  3  1  0
  3  4  2  0
  4  5  1  0
  5  6  1  0
  6  7  1  0
  7  8  1  0
  8  9  1  0
  9  3  1  0
  8  5  1  0
  1 10  1  0
  2 11  1  0
  2 12  1  0
  4 13  1  0
  5 14  1  0
  6 15  1  0
  6 16  1  0
  7 17  1  0
  7 18  1  0
  8 19  1  0
  9 20  1  0
  9 21  1  0
M  END
