
     RDKit          3D

 16 17  0  0  0  0  0  0  0  0999 V2000
    2.4116   -0.4304    0.5820 O   0  0  0  0  0  0  0  0  0  0  0  0
    1.4583    0.5606    0.3440 C   0  0  0  0  0  0  0  0  0  0  0  0
    0.4655    0.0829   -0.7178 C   0  0  0  0  0  0  0  0  0  0  0  0
   -0.3439   -1.1386   -0.4729 C   0  0  0  0  0  0  0  0  0  0  0  0
   -0.6021   -1.4587    0.8418 O   0  0  0  0  0  0  0  0  0  0  0  0
   -1.3584   -0.2996    1.0578 C   0  0  0  0  0  0  0  0  0  0  0  0
   -0.9539    0.1748   -0.3087 C   0  0  0  0  0  0  0  0  0  0  0  0
   -1.8576    0.7339   -1.1709 O   0  0  0  0  0  0  0  0  0  0  0  0
    2.9415   -0.6166   -0.2235 H   0  0  0  0  0  0  0  0  0  0  0  0
    1.9324    1.4937   -0.0593 H   0  0  0  0  0  0  0  0  0  0  0  0
    0.9596    0.8417    1.2765 H   0  0  0  0  0  0  0  0  0  0  0  0
    0.7119    0.3024   -1.7615 H   0  0  0  0  0  0  0  0  0  0  0  0
   -0.5999   -1.8374   -1.2858 H   0  0  0  0  0  0  0  0  0  0  0  0
   -0.9649    0.3706    1.8295 H   0  0  0  0  0  0  0  0  0  0  0  0
   -2.4260   -0.5151    1.1395 H   0  0  0  0  0  0  0  0  0  0  0  0
   -1.7740    1.7357   -1.0705 H   0  0  0  0  0  0  0  0  0  0  0  0
  1  2  1  0
  2  3  1  0
  3  4  1  0
  4  5  1  0
  5  6  1  0
  6  7  1  0
  7  8  1  0
  7  3  1  0
  7  4  1  0
  1  9  1  0
  2 10  1  0
  2 11  1  0
  3 12  1  0
  4 13  1  0
  6 14  1  0
  6 15  1  0
  8 16  1  0
M  END
