
     RDKit          3D

 17 17  0  0  0  0  0  0  0  0999 V2000
    1.5159    0.3817    0.9159 O   0  0  0  0  0  0  0  0  0  0  0  0
    1.4820   -0.4480   -0.1857 C   0  0  0  0  0  0  0  0  0  0  0  0
    0.0612   -0.5997   -0.6817 C   0  0  0  0  0  0  0  0  0  0  0  0
   -0.4926    0.7804   -1.0727 C   0  0  0  0  0  0  0  0  0  0  0  0
   -0.9204    1.3023    0.2625 C   0  0  0  0  0  0  0  0  0  0  0  0
   -1.1452    0.2989    1.0947 C   0  0  0  0  0  0  0  0  0  0  0  0
   -0.8931   -0.9828    0.4049 C   0  0  0  0  0  0  0  0  0  0  0  0
    2.2817    0.2642    1.5033 H   0  0  0  0  0  0  0  0  0  0  0  0
    2.0634    0.0692   -0.9972 H   0  0  0  0  0  0  0  0  0  0  0  0
    1.9832   -1.4209   -0.0423 H   0  0  0  0  0  0  0  0  0  0  0  0
    0.0256   -1.2908   -1.5483 H   0  0  0  0  0  0  0  0  0  0  0  0
    0.2708    1.3982   -1.5511 H   0  0  0  0  0  0  0  0  0  0  0  0
   -1.3729    0.5626   -1.7230 H   0  0  0  0  0  0  0  0  0  0  0  0
   -1.0286    2.3477    0.5070 H   0  0  0  0  0  0  0  0  0  0  0  0
   -1.4649    0.3874    2.1247 H   0  0  0  0  0  0  0  0  0  0  0  0
   -1.8528   -1.2769   -0.0875 H   0  0  0  0  0  0  0  0  0  0  0  0
   -0.5134   -1.7734    1.0765 H   0  0  0  0  0  0  0  0  0  0  0  0
  1  2  1  0
  2  3  1  0
  3  4  1  0
  4  5  1  0
  5  6  2  0
  6  7  1  0
  7  3  1  0
  1  8  1  0
  2  9  1  0
  2 10  1  0
  3 11  1  0
  4 12  1  0
  4 13  1  0
  5 14  1  0
  6 15  1  0
  7 16  1  0
  7 17  1  0
M  END
