
     RDKit          3D

 19 20  0  0  0  0  0  0  0  0999 V2000
    2.0864   -1.0347    0.6509 O   0  0  0  0  0  0  0  0  0  0  0  0
    2.2018   -0.0438   -0.3064 C   0  0  0  0  0  0  0  0  0  0  0  0
    0.8245    0.3713   -0.7404 C   0  0  0  0  0  0  0  0  0  0  0  0
    0.0490   -0.6339   -1.2938 O   0  0  0  0  0  0  0  0  0  0  0  0
   -0.5244   -0.9345   -0.0767 C   0  0  0  0  0  0  0  0  0  0  0  0
   -2.0224   -0.8683   -0.0092 C   0  0  0  0  0  0  0  0  0  0  0  0
   -2.4121    0.4360   -0.0186 O   0  0  0  0  0  0  0  0  0  0  0  0
   -1.3338    1.2595    0.0995 C   0  0  0  0  0  0  0  0  0  0  0  0
   -0.1187    0.4343    0.4125 C   0  0  0  0  0  0  0  0  0  0  0  0
    2.1486   -0.6390    1.5568 H   0  0  0  0  0  0  0  0  0  0  0  0
    2.6870    0.8505    0.1462 H   0  0  0  0  0  0  0  0  0  0  0  0
    2.8546   -0.3410   -1.1554 H   0  0  0  0  0  0  0  0  0  0  0  0
    0.8643    1.3210   -1.2969 H   0  0  0  0  0  0  0  0  0  0  0  0
   -0.1194   -1.7895    0.4629 H   0  0  0  0  0  0  0  0  0  0  0  0
   -2.3154   -1.3031    0.9898 H   0  0  0  0  0  0  0  0  0  0  0  0
   -2.5151   -1.4525   -0.8172 H   0  0  0  0  0  0  0  0  0  0  0  0
   -1.1936    1.8063   -0.8776 H   0  0  0  0  0  0  0  0  0  0  0  0
   -1.4514    2.0632    0.8568 H   0  0  0  0  0  0  0  0  0  0  0  0
    0.2900    0.4983    1.4167 H   0  0  0  0  0  0  0  0  0  0  0  0
  1  2  1  0
  2  3  1  0
  3  4  1  0
  4  5  1  0
  5  6  1  0
  6  7  1  0
  7  8  1  0
  8  9  1  0
  9  3  1  0
  9  5  1  0
  1 10  1  0
  2 11  1  0
  2 12  1  0
  3 13  1  0
  5 14  1  0
  6 15  1  0
  6 16  1  0
  8 17  1  0
  8 18  1  0
  9 19  1  0
M  END
