
     RDKit          3D

 18 19  0  0  0  0  0  0  0  0999 V2000
   -2.3563    0.7618    0.2619 O   0  0  0  0  0  0  0  0  0  0  0  0
   -1.6148   -0.1142   -0.5696 C   0  0  0  0  0  0  0  0  0  0  0  0
   -0.3119   -0.2091   -0.1683 C   0  0  0  0  0  0  0  0  0  0  0  0
    0.1642   -0.6973    1.1899 C   0  0  0  0  0  0  0  0  0  0  0  0
    1.4257   -0.2951    0.4681 C   0  0  0  0  0  0  0  0  0  0  0  0
    0.8116   -0.9970   -0.7203 C   0  0  0  0  0  0  0  0  0  0  0  0
    0.6669    0.9175    0.0242 C   0  0  0  0  0  0  0  0  0  0  0  0
    1.1030    1.5450   -1.1174 O   0  0  0  0  0  0  0  0  0  0  0  0
   -1.8811    0.8323    1.1251 H   0  0  0  0  0  0  0  0  0  0  0  0
   -1.7273    0.3180   -1.5896 H   0  0  0  0  0  0  0  0  0  0  0  0
   -2.1484   -1.0844   -0.6006 H   0  0  0  0  0  0  0  0  0  0  0  0
    0.0589   -1.7862    1.2531 H   0  0  0  0  0  0  0  0  0  0  0  0
   -0.1385   -0.0906    2.0399 H   0  0  0  0  0  0  0  0  0  0  0  0
    2.3647   -0.3644    0.7949 H   0  0  0  0  0  0  0  0  0  0  0  0
    1.2102   -0.7394   -1.6977 H   0  0  0  0  0  0  0  0  0  0  0  0
    0.7400   -2.0924   -0.4921 H   0  0  0  0  0  0  0  0  0  0  0  0
    0.3075    1.5996    0.8131 H   0  0  0  0  0  0  0  0  0  0  0  0
    1.3256    2.4958   -1.0147 H   0  0  0  0  0  0  0  0  0  0  0  0
  1  2  1  0
  2  3  1  0
  3  4  1  0
  4  5  1  0
  5  6  1  0
  5  7  1  0
  7  8  1  0
  6  3  1  0
  7  3  1  0
  1  9  1  0
  2 10  1  0
  2 11  1  0
  4 12  1  0
  4 13  1  0
  5 14  1  0
  6 15  1  0
  6 16  1  0
  7 17  1  0
  8 18  1  0
M  END
