
     RDKit          3D

 19 20  0  0  0  0  0  0  0  0999 V2000
   -2.9456   -0.5857    0.1821 O   0  0  0  0  0  0  0  0  0  0  0  0
   -2.1909    0.4372   -0.4067 C   0  0  0  0  0  0  0  0  0  0  0  0
   -0.8323   -0.1550   -0.7308 C   0  0  0  0  0  0  0  0  0  0  0  0
    0.0548    0.7311   -1.3273 O   0  0  0  0  0  0  0  0  0  0  0  0
    0.5874    1.0423   -0.0814 C   0  0  0  0  0  0  0  0  0  0  0  0
    2.0397    0.9128    0.0545 C   0  0  0  0  0  0  0  0  0  0  0  0
    2.3625   -0.3355    0.2493 C   0  0  0  0  0  0  0  0  0  0  0  0
    1.1838   -1.2492    0.2768 C   0  0  0  0  0  0  0  0  0  0  0  0
    0.0634   -0.2464    0.4523 C   0  0  0  0  0  0  0  0  0  0  0  0
   -2.7714   -0.6055    1.1646 H   0  0  0  0  0  0  0  0  0  0  0  0
   -2.6889    0.7093   -1.3740 H   0  0  0  0  0  0  0  0  0  0  0  0
   -2.1074    1.3215    0.2425 H   0  0  0  0  0  0  0  0  0  0  0  0
   -0.9514   -1.1332   -1.2267 H   0  0  0  0  0  0  0  0  0  0  0  0
    0.1289    1.9706    0.3065 H   0  0  0  0  0  0  0  0  0  0  0  0
    2.7267    1.7670   -0.0048 H   0  0  0  0  0  0  0  0  0  0  0  0
    3.3794   -0.6984    0.3811 H   0  0  0  0  0  0  0  0  0  0  0  0
    1.2509   -1.9585    1.1116 H   0  0  0  0  0  0  0  0  0  0  0  0
    1.0929   -1.7267   -0.7188 H   0  0  0  0  0  0  0  0  0  0  0  0
   -0.3825   -0.1977    1.4492 H   0  0  0  0  0  0  0  0  0  0  0  0
  1  2  1  0
  2  3  1  0
  3  4  1  0
  4  5  1  0
  5  6  1  0
  6  7  2  0
  7  8  1  0
  8  9  1  0
  9  3  1  0
  9  5  1  0
  1 10  1  0
  2 11  1  0
  2 12  1  0
  3 13  1  0
  5 14  1  0
  6 15  1  0
  7 16  1  0
  8 17  1  0
  8 18  1  0
  9 19  1  0
M  END
