
     RDKit          3D

 19 20  0  0  0  0  0  0  0  0999 V2000
    1.8297    1.3100    1.0066 O   0  0  0  0  0  0  0  0  0  0  0  0
    1.5927    0.6920   -0.2000 C   0  0  0  0  0  0  0  0  0  0  0  0
    0.2256    0.0697   -0.2894 C   0  0  0  0  0  0  0  0  0  0  0  0
   -0.9374    0.9832   -0.1347 C   0  0  0  0  0  0  0  0  0  0  0  0
   -1.8787    0.2539    0.7519 C   0  0  0  0  0  0  0  0  0  0  0  0
   -1.3918   -0.8930    1.1558 C   0  0  0  0  0  0  0  0  0  0  0  0
   -0.0350   -1.1036    0.5920 C   0  0  0  0  0  0  0  0  0  0  0  0
   -0.0613   -1.9137   -0.5282 O   0  0  0  0  0  0  0  0  0  0  0  0
    0.0443   -0.8678   -1.4626 C   0  0  0  0  0  0  0  0  0  0  0  0
    2.6856    0.9585    1.4058 H   0  0  0  0  0  0  0  0  0  0  0  0
    1.6140    1.5062   -0.9832 H   0  0  0  0  0  0  0  0  0  0  0  0
    2.3535   -0.0864   -0.4060 H   0  0  0  0  0  0  0  0  0  0  0  0
   -1.4548    1.0754   -1.1262 H   0  0  0  0  0  0  0  0  0  0  0  0
   -0.6637    1.9812    0.2548 H   0  0  0  0  0  0  0  0  0  0  0  0
   -2.8629    0.6690    1.0124 H   0  0  0  0  0  0  0  0  0  0  0  0
   -1.8648   -1.6297    1.8108 H   0  0  0  0  0  0  0  0  0  0  0  0
    0.7522   -1.3381    1.3340 H   0  0  0  0  0  0  0  0  0  0  0  0
    0.9156   -0.9686   -2.1341 H   0  0  0  0  0  0  0  0  0  0  0  0
   -0.8628   -0.6981   -2.0598 H   0  0  0  0  0  0  0  0  0  0  0  0
  1  2  1  0
  2  3  1  0
  3  4  1  0
  4  5  1  0
  5  6  2  0
  6  7  1  0
  7  8  1  0
  8  9  1  0
  7  3  1  0
  9  3  1  0
  1 10  1  0
  2 11  1  0
  2 12  1  0
  4 13  1  0
  4 14  1  0
  5 15  1  0
  6 16  1  0
  7 17  1  0
  9 18  1  0
  9 19  1  0
M  END
