
     RDKit          3D

 19 20  0  0  0  0  0  0  0  0999 V2000
    2.4612    0.9390   -0.8690 O   0  0  0  0  0  0  0  0  0  0  0  0
    1.8736   -0.1587   -0.2919 C   0  0  0  0  0  0  0  0  0  0  0  0
    0.7189    0.1528    0.6004 C   0  0  0  0  0  0  0  0  0  0  0  0
    0.2126   -1.0266    1.1199 O   0  0  0  0  0  0  0  0  0  0  0  0
   -1.1463   -1.0657    0.9015 C   0  0  0  0  0  0  0  0  0  0  0  0
   -1.5000    0.4328    0.9907 C   0  0  0  0  0  0  0  0  0  0  0  0
   -0.4490    0.7836   -0.0840 C   0  0  0  0  0  0  0  0  0  0  0  0
   -0.9461   -0.1702   -1.1512 C   0  0  0  0  0  0  0  0  0  0  0  0
   -1.3773   -1.2975   -0.4521 O   0  0  0  0  0  0  0  0  0  0  0  0
    2.7747    0.6638   -1.7771 H   0  0  0  0  0  0  0  0  0  0  0  0
    1.5979   -0.9166   -1.0526 H   0  0  0  0  0  0  0  0  0  0  0  0
    2.6538   -0.6517    0.3446 H   0  0  0  0  0  0  0  0  0  0  0  0
    1.0420    0.8298    1.4187 H   0  0  0  0  0  0  0  0  0  0  0  0
   -1.7269   -1.6688    1.5672 H   0  0  0  0  0  0  0  0  0  0  0  0
   -1.2517    0.8544    1.9578 H   0  0  0  0  0  0  0  0  0  0  0  0
   -2.5110    0.5560    0.6334 H   0  0  0  0  0  0  0  0  0  0  0  0
   -0.4023    1.8110   -0.3376 H   0  0  0  0  0  0  0  0  0  0  0  0
   -0.1859   -0.4096   -1.9001 H   0  0  0  0  0  0  0  0  0  0  0  0
   -1.8380    0.3422   -1.6185 H   0  0  0  0  0  0  0  0  0  0  0  0
  1  2  1  0
  2  3  1  0
  3  4  1  0
  4  5  1  0
  5  6  1  0
  6  7  1  0
  7  8  1  0
  8  9  1  0
  7  3  1  0
  9  5  1  0
  1 10  1  0
  2 11  1  0
  2 12  1  0
  3 13  1  0
  5 14  1  0
  6 15  1  0
  6 16  1  0
  7 17  1  0
  8 18  1  0
  8 19  1  0
M  END
