
     RDKit          3D

 17 18  0  0  0  0  0  0  0  0999 V2000
    2.2194    0.9426   -0.5223 O   0  0  0  0  0  0  0  0  0  0  0  0
    1.6416   -0.2660   -0.1433 C   0  0  0  0  0  0  0  0  0  0  0  0
    0.1974   -0.3080   -0.1844 C   0  0  0  0  0  0  0  0  0  0  0  0
   -0.5249   -1.4832    0.3623 C   0  0  0  0  0  0  0  0  0  0  0  0
   -1.8052   -1.1621    0.0449 C   0  0  0  0  0  0  0  0  0  0  0  0
   -1.5847    0.1706   -0.6092 C   0  0  0  0  0  0  0  0  0  0  0  0
   -0.4633   -0.0869   -1.3907 O   0  0  0  0  0  0  0  0  0  0  0  0
   -0.6158    0.8318    0.3703 C   0  0  0  0  0  0  0  0  0  0  0  0
   -0.2040    2.0969    0.0116 O   0  0  0  0  0  0  0  0  0  0  0  0
    3.1771    0.8980   -0.2034 H   0  0  0  0  0  0  0  0  0  0  0  0
    2.0846   -0.5660    0.8274 H   0  0  0  0  0  0  0  0  0  0  0  0
    2.0481   -1.0219   -0.8796 H   0  0  0  0  0  0  0  0  0  0  0  0
   -0.1397   -2.3540    0.8720 H   0  0  0  0  0  0  0  0  0  0  0  0
   -2.7092   -1.7192    0.2210 H   0  0  0  0  0  0  0  0  0  0  0  0
   -2.4007    0.7184   -0.9810 H   0  0  0  0  0  0  0  0  0  0  0  0
   -0.9755    0.6936    1.3898 H   0  0  0  0  0  0  0  0  0  0  0  0
    0.0549    2.6154    0.8146 H   0  0  0  0  0  0  0  0  0  0  0  0
  1  2  1  0
  2  3  1  0
  3  4  1  0
  4  5  2  0
  5  6  1  0
  6  7  1  0
  6  8  1  0
  8  9  1  0
  7  3  1  0
  8  3  1  0
  1 10  1  0
  2 11  1  0
  2 12  1  0
  4 13  1  0
  5 14  1  0
  6 15  1  0
  8 16  1  0
  9 17  1  0
M  END
