
     RDKit          3D

 19 21  0  0  0  0  0  0  0  0999 V2000
    2.0867    0.1267    0.7841 O   0  0  0  0  0  0  0  0  0  0  0  0
    1.8313    0.0437   -0.5899 C   0  0  0  0  0  0  0  0  0  0  0  0
    0.3458    0.0255   -0.8724 C   0  0  0  0  0  0  0  0  0  0  0  0
   -0.3126    1.2816   -0.3536 C   0  0  0  0  0  0  0  0  0  0  0  0
   -1.4660    0.7940    0.5109 C   0  0  0  0  0  0  0  0  0  0  0  0
   -2.3835    0.0511   -0.2537 O   0  0  0  0  0  0  0  0  0  0  0  0
   -1.7363   -1.1471    0.0092 C   0  0  0  0  0  0  0  0  0  0  0  0
   -0.2629   -1.1297   -0.0822 C   0  0  0  0  0  0  0  0  0  0  0  0
   -0.9330   -0.4931    1.0382 C   0  0  0  0  0  0  0  0  0  0  0  0
    3.0513    0.1300    0.9551 H   0  0  0  0  0  0  0  0  0  0  0  0
    2.2688   -0.9040   -0.9439 H   0  0  0  0  0  0  0  0  0  0  0  0
    2.2993    0.9318   -1.0817 H   0  0  0  0  0  0  0  0  0  0  0  0
    0.1599   -0.1318   -1.9338 H   0  0  0  0  0  0  0  0  0  0  0  0
   -0.6346    1.9502   -1.1545 H   0  0  0  0  0  0  0  0  0  0  0  0
    0.4127    1.7645    0.3532 H   0  0  0  0  0  0  0  0  0  0  0  0
   -1.8884    1.5118    1.2034 H   0  0  0  0  0  0  0  0  0  0  0  0
   -2.3187   -2.0442    0.2234 H   0  0  0  0  0  0  0  0  0  0  0  0
    0.3554   -2.0103    0.1121 H   0  0  0  0  0  0  0  0  0  0  0  0
   -0.8752   -0.7507    2.0760 H   0  0  0  0  0  0  0  0  0  0  0  0
  1  2  1  0
  2  3  1  0
  3  4  1  0
  4  5  1  0
  5  6  1  0
  6  7  1  0
  7  8  1  0
  8  9  1  0
  8  3  1  0
  9  5  1  0
  9  7  1  0
  1 10  1  0
  2 11  1  0
  2 12  1  0
  3 13  1  0
  4 14  1  0
  4 15  1  0
  5 16  1  0
  7 17  1  0
  8 18  1  0
  9 19  1  0
M  END
