
     RDKit          3D

 21 21  0  0  0  0  0  0  0  0999 V2000
    2.4104    0.5721    1.0893 O   0  0  0  0  0  0  0  0  0  0  0  0
    1.6000    1.0105    0.0274 C   0  0  0  0  0  0  0  0  0  0  0  0
    0.5975   -0.1282   -0.2077 C   0  0  0  0  0  0  0  0  0  0  0  0
    1.3991   -1.2488   -0.5304 O   0  0  0  0  0  0  0  0  0  0  0  0
   -0.1063   -0.4126    1.0596 C   0  0  0  0  0  0  0  0  0  0  0  0
   -1.5429    0.0235    1.1007 C   0  0  0  0  0  0  0  0  0  0  0  0
   -2.1262   -0.3113   -0.2756 C   0  0  0  0  0  0  0  0  0  0  0  0
   -1.5060    0.6214   -1.1355 O   0  0  0  0  0  0  0  0  0  0  0  0
   -0.2413    0.1740   -1.3858 C   0  0  0  0  0  0  0  0  0  0  0  0
    2.8772   -0.2672    0.8296 H   0  0  0  0  0  0  0  0  0  0  0  0
    2.1928    1.2171   -0.8875 H   0  0  0  0  0  0  0  0  0  0  0  0
    1.0483    1.9154    0.3863 H   0  0  0  0  0  0  0  0  0  0  0  0
    1.7807   -1.0231   -1.4309 H   0  0  0  0  0  0  0  0  0  0  0  0
    0.4015    0.0950    1.9297 H   0  0  0  0  0  0  0  0  0  0  0  0
   -0.1059   -1.5168    1.2901 H   0  0  0  0  0  0  0  0  0  0  0  0
   -1.6048    1.1312    1.1842 H   0  0  0  0  0  0  0  0  0  0  0  0
   -2.1158   -0.5112    1.8572 H   0  0  0  0  0  0  0  0  0  0  0  0
   -3.2116   -0.2497   -0.2980 H   0  0  0  0  0  0  0  0  0  0  0  0
   -1.7196   -1.3225   -0.5249 H   0  0  0  0  0  0  0  0  0  0  0  0
   -0.3232   -0.7144   -2.0675 H   0  0  0  0  0  0  0  0  0  0  0  0
    0.2961    0.9456   -2.0104 H   0  0  0  0  0  0  0  0  0  0  0  0
  1  2  1  0
  2  3  1  0
  3  4  1  0
  3  5  1  0
  5  6  1  0
  6  7  1  0
  7  8  1  0
  8  9  1  0
  9  3  1  0
  1 10  1  0
  2 11  1  0
  2 12  1  0
  4 13  1  0
  5 14  1  0
  5 15  1  0
  6 16  1  0
  6 17  1  0
  7 18  1  0
  7 19  1  0
  9 20  1  0
  9 21  1  0
M  END
