
     RDKit          3D

 19 21  0  0  0  0  0  0  0  0999 V2000
    1.7052    1.4702    0.0284 O   0  0  0  0  0  0  0  0  0  0  0  0
    1.8454    0.0923    0.0993 C   0  0  0  0  0  0  0  0  0  0  0  0
    0.6357   -0.5757   -0.0037 C   0  0  0  0  0  0  0  0  0  0  0  0
    0.4751   -1.9589    0.0362 O   0  0  0  0  0  0  0  0  0  0  0  0
   -0.8242   -1.5353   -0.1951 C   0  0  0  0  0  0  0  0  0  0  0  0
   -0.5648   -0.4633    0.8249 C   0  0  0  0  0  0  0  0  0  0  0  0
   -1.3160    0.7668    0.3803 C   0  0  0  0  0  0  0  0  0  0  0  0
   -1.0995    0.6619   -1.1396 C   0  0  0  0  0  0  0  0  0  0  0  0
   -0.2662   -0.5886   -1.1957 C   0  0  0  0  0  0  0  0  0  0  0  0
    2.4757    1.8729    0.5199 H   0  0  0  0  0  0  0  0  0  0  0  0
    2.4138   -0.1671    1.0138 H   0  0  0  0  0  0  0  0  0  0  0  0
    2.5429   -0.1780   -0.7490 H   0  0  0  0  0  0  0  0  0  0  0  0
   -1.6489   -2.1108   -0.2671 H   0  0  0  0  0  0  0  0  0  0  0  0
   -0.5720   -0.7220    1.8646 H   0  0  0  0  0  0  0  0  0  0  0  0
   -2.3701    0.6881    0.6504 H   0  0  0  0  0  0  0  0  0  0  0  0
   -0.8236    1.7055    0.6983 H   0  0  0  0  0  0  0  0  0  0  0  0
   -2.0895    0.4312   -1.5720 H   0  0  0  0  0  0  0  0  0  0  0  0
   -0.6148    1.5484   -1.5472 H   0  0  0  0  0  0  0  0  0  0  0  0
    0.0960   -0.9379   -2.1378 H   0  0  0  0  0  0  0  0  0  0  0  0
  1  2  1  0
  2  3  1  0
  3  4  1  0
  4  5  1  0
  5  6  1  0
  6  7  1  0
  7  8  1  0
  8  9  1  0
  6  3  1  0
  9  3  1  0
  9  5  1  0
  1 10  1  0
  2 11  1  0
  2 12  1  0
  5 13  1  0
  6 14  1  0
  7 15  1  0
  7 16  1  0
  8 17  1  0
  8 18  1  0
  9 19  1  0
M  END
