
     RDKit          3D

 19 19  0  0  0  0  0  0  0  0999 V2000
   -1.9302    1.4608   -0.2709 O   0  0  0  0  0  0  0  0  0  0  0  0
   -0.6126    1.7698   -0.2932 C   0  0  0  0  0  0  0  0  0  0  0  0
    0.3483    0.6552   -0.2197 C   0  0  0  0  0  0  0  0  0  0  0  0
    0.0415   -0.6259   -0.1337 C   0  0  0  0  0  0  0  0  0  0  0  0
   -1.2248   -1.3578   -0.0827 C   0  0  0  0  0  0  0  0  0  0  0  0
   -1.2954   -2.0934    1.1270 O   0  0  0  0  0  0  0  0  0  0  0  0
    1.3844   -1.3293   -0.0977 C   0  0  0  0  0  0  0  0  0  0  0  0
    2.2448   -0.4343   -0.7395 O   0  0  0  0  0  0  0  0  0  0  0  0
    1.8533    0.7683   -0.2218 C   0  0  0  0  0  0  0  0  0  0  0  0
   -2.4941    2.0144    0.2950 H   0  0  0  0  0  0  0  0  0  0  0  0
   -0.4135    2.3772   -1.2218 H   0  0  0  0  0  0  0  0  0  0  0  0
   -0.3913    2.4721    0.5638 H   0  0  0  0  0  0  0  0  0  0  0  0
   -2.1429   -0.7974   -0.1408 H   0  0  0  0  0  0  0  0  0  0  0  0
   -1.2600   -2.1358   -0.9021 H   0  0  0  0  0  0  0  0  0  0  0  0
   -1.5184   -1.4708    1.8898 H   0  0  0  0  0  0  0  0  0  0  0  0
    1.3595   -2.2857   -0.6148 H   0  0  0  0  0  0  0  0  0  0  0  0
    1.7012   -1.4164    0.9481 H   0  0  0  0  0  0  0  0  0  0  0  0
    2.1484    0.7729    0.8664 H   0  0  0  0  0  0  0  0  0  0  0  0
    2.2017    1.6562   -0.7512 H   0  0  0  0  0  0  0  0  0  0  0  0
  1  2  1  0
  2  3  1  0
  3  4  2  0
  4  5  1  0
  5  6  1  0
  4  7  1  0
  7  8  1  0
  8  9  1  0
  9  3  1  0
  1 10  1  0
  2 11  1  0
  2 12  1  0
  5 13  1  0
  5 14  1  0
  6 15  1  0
  7 16  1  0
  7 17  1  0
  9 18  1  0
  9 19  1  0
M  END
