
     RDKit          3D

 21 22  0  0  0  0  0  0  0  0999 V2000
    2.5934    0.6457    0.6809 O   0  0  0  0  0  0  0  0  0  0  0  0
    1.8980   -0.4663    0.2478 C   0  0  0  0  0  0  0  0  0  0  0  0
    0.4899   -0.1529   -0.2001 C   0  0  0  0  0  0  0  0  0  0  0  0
   -0.3194   -1.4177   -0.3155 C   0  0  0  0  0  0  0  0  0  0  0  0
   -1.7443   -0.9099   -0.3289 C   0  0  0  0  0  0  0  0  0  0  0  0
   -1.7179    0.2453    0.6495 C   0  0  0  0  0  0  0  0  0  0  0  0
   -0.2938    0.7391    0.7019 C   0  0  0  0  0  0  0  0  0  0  0  0
   -0.0015    1.7634   -0.3817 C   0  0  0  0  0  0  0  0  0  0  0  0
    0.3863    0.7334   -1.2400 O   0  0  0  0  0  0  0  0  0  0  0  0
    3.5559    0.4647    0.5316 H   0  0  0  0  0  0  0  0  0  0  0  0
    2.4334   -0.8386   -0.6742 H   0  0  0  0  0  0  0  0  0  0  0  0
    1.9510   -1.2710    0.9747 H   0  0  0  0  0  0  0  0  0  0  0  0
   -0.0701   -2.0207   -1.1982 H   0  0  0  0  0  0  0  0  0  0  0  0
   -0.1895   -1.9792    0.6444 H   0  0  0  0  0  0  0  0  0  0  0  0
   -2.4252   -1.6932    0.0106 H   0  0  0  0  0  0  0  0  0  0  0  0
   -2.0799   -0.5758   -1.3206 H   0  0  0  0  0  0  0  0  0  0  0  0
   -2.3787    1.0457    0.2289 H   0  0  0  0  0  0  0  0  0  0  0  0
   -2.1245   -0.0173    1.6357 H   0  0  0  0  0  0  0  0  0  0  0  0
    0.1159    0.9538    1.6888 H   0  0  0  0  0  0  0  0  0  0  0  0
    0.8344    2.4571   -0.1382 H   0  0  0  0  0  0  0  0  0  0  0  0
   -0.9135    2.2945   -0.6517 H   0  0  0  0  0  0  0  0  0  0  0  0
  1  2  1  0
  2  3  1  0
  3  4  1  0
  4  5  1  0
  5  6  1  0
  6  7  1  0
  7  8  1  0
  8  9  1  0
  7  3  1  0
  9  3  1  0
  1 10  1  0
  2 11  1  0
  2 12  1  0
  4 13  1  0
  4 14  1  0
  5 15  1  0
  5 16  1  0
  6 17  1  0
  6 18  1  0
  7 19  1  0
  8 20  1  0
  8 21  1  0
M  END
