
     RDKit          3D

 19 20  0  0  0  0  0  0  0  0999 V2000
    2.4032   -0.5050    0.8498 O   0  0  0  0  0  0  0  0  0  0  0  0
    1.7444    0.1083   -0.2233 C   0  0  0  0  0  0  0  0  0  0  0  0
    0.4180   -0.5497   -0.3885 C   0  0  0  0  0  0  0  0  0  0  0  0
   -0.4552   -0.4202    0.8696 C   0  0  0  0  0  0  0  0  0  0  0  0
   -1.7538   -0.9024    0.2977 C   0  0  0  0  0  0  0  0  0  0  0  0
   -1.8136   -0.3258   -0.9105 C   0  0  0  0  0  0  0  0  0  0  0  0
   -0.5124    0.3760   -1.1955 C   0  0  0  0  0  0  0  0  0  0  0  0
   -0.4858    1.5133   -0.4141 O   0  0  0  0  0  0  0  0  0  0  0  0
   -0.5678    1.0836    0.9210 C   0  0  0  0  0  0  0  0  0  0  0  0
    3.3722   -0.4270    0.6873 H   0  0  0  0  0  0  0  0  0  0  0  0
    1.6961    1.1856   -0.0893 H   0  0  0  0  0  0  0  0  0  0  0  0
    2.3549   -0.1152   -1.1208 H   0  0  0  0  0  0  0  0  0  0  0  0
    0.4561   -1.5554   -0.7826 H   0  0  0  0  0  0  0  0  0  0  0  0
   -0.0977   -0.9188    1.7246 H   0  0  0  0  0  0  0  0  0  0  0  0
   -2.4981   -1.5502    0.7030 H   0  0  0  0  0  0  0  0  0  0  0  0
   -2.6605   -0.3504   -1.5921 H   0  0  0  0  0  0  0  0  0  0  0  0
   -0.2565    0.4779   -2.2150 H   0  0  0  0  0  0  0  0  0  0  0  0
    0.2186    1.5090    1.5501 H   0  0  0  0  0  0  0  0  0  0  0  0
   -1.5618    1.3665    1.3287 H   0  0  0  0  0  0  0  0  0  0  0  0
  1  2  1  0
  2  3  1  0
  3  4  1  0
  4  5  1  0
  5  6  2  0
  6  7  1  0
  7  8  1  0
  8  9  1  0
  7  3  1  0
  9  4  1  0
  1 10  1  0
  2 11  1  0
  2 12  1  0
  3 13  1  0
  4 14  1  0
  5 15  1  0
  6 16  1  0
  7 17  1  0
  9 18  1  0
  9 19  1  0
M  END
