
     RDKit          3D

 19 19  0  0  0  0  0  0  0  0999 V2000
    2.7779    0.0440    0.9085 O   0  0  0  0  0  0  0  0  0  0  0  0
    1.5411    0.6120    0.6844 C   0  0  0  0  0  0  0  0  0  0  0  0
    1.0739    0.2618   -0.7204 C   0  0  0  0  0  0  0  0  0  0  0  0
    0.6998   -1.2033   -0.8209 C   0  0  0  0  0  0  0  0  0  0  0  0
   -0.4765   -1.1918   -0.0601 O   0  0  0  0  0  0  0  0  0  0  0  0
   -1.1346   -0.0945   -0.6022 C   0  0  0  0  0  0  0  0  0  0  0  0
   -2.1124    0.4636    0.3960 C   0  0  0  0  0  0  0  0  0  0  0  0
   -3.0774   -0.4234    0.7878 O   0  0  0  0  0  0  0  0  0  0  0  0
   -0.1725    0.8609   -0.8842 O   0  0  0  0  0  0  0  0  0  0  0  0
    3.4496    0.7564    0.9164 H   0  0  0  0  0  0  0  0  0  0  0  0
    0.7646    0.2467    1.3922 H   0  0  0  0  0  0  0  0  0  0  0  0
    1.5904    1.7164    0.7644 H   0  0  0  0  0  0  0  0  0  0  0  0
    1.8004    0.5652   -1.4853 H   0  0  0  0  0  0  0  0  0  0  0  0
    0.4153   -1.4045   -1.8618 H   0  0  0  0  0  0  0  0  0  0  0  0
    1.4626   -1.8684   -0.4121 H   0  0  0  0  0  0  0  0  0  0  0  0
   -1.6297   -0.3475   -1.5624 H   0  0  0  0  0  0  0  0  0  0  0  0
   -2.6414    1.3129   -0.1279 H   0  0  0  0  0  0  0  0  0  0  0  0
   -1.5633    0.8188    1.2836 H   0  0  0  0  0  0  0  0  0  0  0  0
   -2.7677   -1.1254    1.4039 H   0  0  0  0  0  0  0  0  0  0  0  0
  1  2  1  0
  2  3  1  0
  3  4  1  0
  4  5  1  0
  5  6  1  0
  6  7  1  0
  7  8  1  0
  6  9  1  0
  9  3  1  0
  1 10  1  0
  2 11  1  0
  2 12  1  0
  3 13  1  0
  4 14  1  0
  4 15  1  0
  6 16  1  0
  7 17  1  0
  7 18  1  0
  8 19  1  0
M  END
