
     RDKit          3D

 21 21  0  0  0  0  0  0  0  0999 V2000
    3.4381    0.5565   -0.1477 O   0  0  0  0  0  0  0  0  0  0  0  0
    2.4969   -0.0266    0.6672 C   0  0  0  0  0  0  0  0  0  0  0  0
    1.1361   -0.0693    0.0630 C   0  0  0  0  0  0  0  0  0  0  0  0
    0.0685    0.5019    0.5781 C   0  0  0  0  0  0  0  0  0  0  0  0
   -1.1206    0.2685   -0.2719 C   0  0  0  0  0  0  0  0  0  0  0  0
   -2.3801    0.1051    0.5389 C   0  0  0  0  0  0  0  0  0  0  0  0
   -2.5237    1.3161    1.2587 O   0  0  0  0  0  0  0  0  0  0  0  0
   -0.7597   -0.9084   -1.0898 C   0  0  0  0  0  0  0  0  0  0  0  0
    0.7434   -0.7564   -1.2040 C   0  0  0  0  0  0  0  0  0  0  0  0
    3.1158    1.3421   -0.6532 H   0  0  0  0  0  0  0  0  0  0  0  0
    2.4702    0.5405    1.6164 H   0  0  0  0  0  0  0  0  0  0  0  0
    2.8494   -1.0649    0.8904 H   0  0  0  0  0  0  0  0  0  0  0  0
    0.0812    1.0823    1.5333 H   0  0  0  0  0  0  0  0  0  0  0  0
   -1.1869    1.1611   -0.9605 H   0  0  0  0  0  0  0  0  0  0  0  0
   -2.2023   -0.6971    1.2703 H   0  0  0  0  0  0  0  0  0  0  0  0
   -3.2756   -0.0097   -0.0742 H   0  0  0  0  0  0  0  0  0  0  0  0
   -2.9662    1.1687    2.1294 H   0  0  0  0  0  0  0  0  0  0  0  0
   -1.1714   -0.8001   -2.1177 H   0  0  0  0  0  0  0  0  0  0  0  0
   -1.0312   -1.8878   -0.6697 H   0  0  0  0  0  0  0  0  0  0  0  0
    1.1963   -1.7385   -1.3275 H   0  0  0  0  0  0  0  0  0  0  0  0
    1.0218   -0.0838   -2.0296 H   0  0  0  0  0  0  0  0  0  0  0  0
  1  2  1  0
  2  3  1  0
  3  4  2  0
  4  5  1  0
  5  6  1  0
  6  7  1  0
  5  8  1  0
  8  9  1  0
  9  3  1  0
  1 10  1  0
  2 11  1  0
  2 12  1  0
  4 13  1  0
  5 14  1  0
  6 15  1  0
  6 16  1  0
  7 17  1  0
  8 18  1  0
  8 19  1  0
  9 20  1  0
  9 21  1  0
M  END
