
     RDKit          3D

 19 21  0  0  0  0  0  0  0  0999 V2000
    2.5244    0.2336   -0.0654 O   0  0  0  0  0  0  0  0  0  0  0  0
    1.4880   -0.6411    0.3471 C   0  0  0  0  0  0  0  0  0  0  0  0
    0.2443   -0.1599   -0.2197 C   0  0  0  0  0  0  0  0  0  0  0  0
    0.1031   -0.0566   -1.7125 C   0  0  0  0  0  0  0  0  0  0  0  0
   -1.1931    0.4868   -1.8102 O   0  0  0  0  0  0  0  0  0  0  0  0
   -1.6100    0.5318   -0.5054 C   0  0  0  0  0  0  0  0  0  0  0  0
   -1.0831   -0.7118    0.1880 C   0  0  0  0  0  0  0  0  0  0  0  0
   -0.9827    0.1305    1.3992 C   0  0  0  0  0  0  0  0  0  0  0  0
   -0.4542    1.0290    0.3198 C   0  0  0  0  0  0  0  0  0  0  0  0
    3.1340    0.4506    0.6716 H   0  0  0  0  0  0  0  0  0  0  0  0
    1.7765   -1.6585    0.0133 H   0  0  0  0  0  0  0  0  0  0  0  0
    1.5357   -0.6606    1.4522 H   0  0  0  0  0  0  0  0  0  0  0  0
    0.8607    0.5986   -2.1405 H   0  0  0  0  0  0  0  0  0  0  0  0
    0.0621   -1.0718   -2.1870 H   0  0  0  0  0  0  0  0  0  0  0  0
   -2.6003    0.8590   -0.2609 H   0  0  0  0  0  0  0  0  0  0  0  0
   -1.4347   -1.6390    0.0694 H   0  0  0  0  0  0  0  0  0  0  0  0
   -0.2774   -0.1751    2.1932 H   0  0  0  0  0  0  0  0  0  0  0  0
   -1.9563    0.4832    1.8381 H   0  0  0  0  0  0  0  0  0  0  0  0
   -0.1369    1.9714    0.4097 H   0  0  0  0  0  0  0  0  0  0  0  0
  1  2  1  0
  2  3  1  0
  3  4  1  0
  4  5  1  0
  5  6  1  0
  6  7  1  0
  7  8  1  0
  8  9  1  0
  7  3  1  0
  9  3  1  0
  9  6  1  0
  1 10  1  0
  2 11  1  0
  2 12  1  0
  4 13  1  0
  4 14  1  0
  6 15  1  0
  7 16  1  0
  8 17  1  0
  8 18  1  0
  9 19  1  0
M  END
