
     RDKit          3D

 21 22  0  0  0  0  0  0  0  0999 V2000
   -2.3154   -0.5237    1.0103 O   0  0  0  0  0  0  0  0  0  0  0  0
   -1.2588    0.3950    0.7906 C   0  0  0  0  0  0  0  0  0  0  0  0
   -0.5902   -0.1015   -0.4810 C   0  0  0  0  0  0  0  0  0  0  0  0
   -0.0736   -1.4696   -0.3321 C   0  0  0  0  0  0  0  0  0  0  0  0
    1.0548   -1.3488    0.6743 C   0  0  0  0  0  0  0  0  0  0  0  0
    1.6434   -0.1897    0.9510 C   0  0  0  0  0  0  0  0  0  0  0  0
    1.2632    1.1109    0.3081 C   0  0  0  0  0  0  0  0  0  0  0  0
    0.6724    0.6914   -0.9796 C   0  0  0  0  0  0  0  0  0  0  0  0
   -0.5998    0.8062   -1.5739 C   0  0  0  0  0  0  0  0  0  0  0  0
   -3.0445   -0.2847    0.3648 H   0  0  0  0  0  0  0  0  0  0  0  0
   -1.7775    1.3658    0.6400 H   0  0  0  0  0  0  0  0  0  0  0  0
   -0.6332    0.3605    1.6787 H   0  0  0  0  0  0  0  0  0  0  0  0
   -0.8382   -2.1934    0.0627 H   0  0  0  0  0  0  0  0  0  0  0  0
    0.3398   -1.8158   -1.3119 H   0  0  0  0  0  0  0  0  0  0  0  0
    1.3390   -2.2844    1.1465 H   0  0  0  0  0  0  0  0  0  0  0  0
    2.4393   -0.2038    1.6834 H   0  0  0  0  0  0  0  0  0  0  0  0
    2.1972    1.7028    0.0739 H   0  0  0  0  0  0  0  0  0  0  0  0
    0.6590    1.7512    0.9434 H   0  0  0  0  0  0  0  0  0  0  0  0
    1.4423    0.0905   -1.5555 H   0  0  0  0  0  0  0  0  0  0  0  0
   -1.1637    1.7602   -1.4902 H   0  0  0  0  0  0  0  0  0  0  0  0
   -0.7556    0.3811   -2.6036 H   0  0  0  0  0  0  0  0  0  0  0  0
  1  2  1  0
  2  3  1  0
  3  4  1  0
  4  5  1  0
  5  6  2  0
  6  7  1  0
  7  8  1  0
  8  9  1  0
  8  3  1  0
  9  3  1  0
  1 10  1  0
  2 11  1  0
  2 12  1  0
  4 13  1  0
  4 14  1  0
  5 15  1  0
  6 16  1  0
  7 17  1  0
  7 18  1  0
  8 19  1  0
  9 20  1  0
  9 21  1  0
M  END
