
     RDKit          3D

 17 20  0  0  0  0  0  0  0  0999 V2000
    2.6715    0.0245   -0.1614 O   0  0  0  0  0  0  0  0  0  0  0  0
    1.6401   -0.6901    0.4296 C   0  0  0  0  0  0  0  0  0  0  0  0
    0.3010   -0.3750    0.0614 C   0  0  0  0  0  0  0  0  0  0  0  0
   -0.4106   -0.3969   -1.1809 C   0  0  0  0  0  0  0  0  0  0  0  0
   -1.2736    0.7141   -0.7306 C   0  0  0  0  0  0  0  0  0  0  0  0
   -1.7191   -0.0603    0.3975 C   0  0  0  0  0  0  0  0  0  0  0  0
   -0.8816   -1.1946   -0.0523 C   0  0  0  0  0  0  0  0  0  0  0  0
   -0.5400    0.7593    0.5251 C   0  0  0  0  0  0  0  0  0  0  0  0
   -0.2266    1.7541    1.3101 O   0  0  0  0  0  0  0  0  0  0  0  0
    2.3917    0.6750   -0.8255 H   0  0  0  0  0  0  0  0  0  0  0  0
    1.8717   -1.7739    0.2502 H   0  0  0  0  0  0  0  0  0  0  0  0
    1.7880   -0.5673    1.5442 H   0  0  0  0  0  0  0  0  0  0  0  0
   -0.1575   -0.6837   -2.1555 H   0  0  0  0  0  0  0  0  0  0  0  0
   -1.7193    1.4777   -1.2938 H   0  0  0  0  0  0  0  0  0  0  0  0
   -2.6225   -0.0848    0.9301 H   0  0  0  0  0  0  0  0  0  0  0  0
   -1.0491   -2.2223    0.0385 H   0  0  0  0  0  0  0  0  0  0  0  0
   -0.0641    2.6443    0.9133 H   0  0  0  0  0  0  0  0  0  0  0  0
  1  2  1  0
  2  3  1  0
  3  4  1  0
  4  5  1  0
  5  6  1  0
  6  7  1  0
  6  8  1  0
  8  9  1  0
  7  3  1  0
  8  3  1  0
  7  4  1  0
  8  5  1  0
  1 10  1  0
  2 11  1  0
  2 12  1  0
  4 13  1  0
  5 14  1  0
  6 15  1  0
  7 16  1  0
  9 17  1  0
M  END
