
     RDKit          3D

 21 22  0  0  0  0  0  0  0  0999 V2000
   -2.8038    1.1279    0.5943 O   0  0  0  0  0  0  0  0  0  0  0  0
   -2.0889    0.2897   -0.2783 C   0  0  0  0  0  0  0  0  0  0  0  0
   -1.0086   -0.4516    0.4240 C   0  0  0  0  0  0  0  0  0  0  0  0
   -0.1651   -1.3940   -0.4290 C   0  0  0  0  0  0  0  0  0  0  0  0
    1.0179   -1.0565    0.4870 C   0  0  0  0  0  0  0  0  0  0  0  0
    2.2459   -0.6228   -0.1808 C   0  0  0  0  0  0  0  0  0  0  0  0
    2.1370    0.6165   -0.6409 C   0  0  0  0  0  0  0  0  0  0  0  0
    0.7846    1.1328   -0.3101 C   0  0  0  0  0  0  0  0  0  0  0  0
    0.2540    0.2527    0.7651 C   0  0  0  0  0  0  0  0  0  0  0  0
   -2.2940    1.9910    0.6169 H   0  0  0  0  0  0  0  0  0  0  0  0
   -2.8613   -0.4256   -0.6796 H   0  0  0  0  0  0  0  0  0  0  0  0
   -1.7989    0.9095   -1.1239 H   0  0  0  0  0  0  0  0  0  0  0  0
   -1.4448   -0.9648    1.3257 H   0  0  0  0  0  0  0  0  0  0  0  0
   -0.4875   -2.4237   -0.2880 H   0  0  0  0  0  0  0  0  0  0  0  0
   -0.0433   -1.0719   -1.4627 H   0  0  0  0  0  0  0  0  0  0  0  0
    1.1238   -1.7089    1.3514 H   0  0  0  0  0  0  0  0  0  0  0  0
    3.1462   -1.2268   -0.2958 H   0  0  0  0  0  0  0  0  0  0  0  0
    2.8903    1.1875   -1.1740 H   0  0  0  0  0  0  0  0  0  0  0  0
    0.8204    2.1826    0.0514 H   0  0  0  0  0  0  0  0  0  0  0  0
    0.1935    1.0626   -1.2462 H   0  0  0  0  0  0  0  0  0  0  0  0
    0.3825    0.5938    1.8072 H   0  0  0  0  0  0  0  0  0  0  0  0
  1  2  1  0
  2  3  1  0
  3  4  1  0
  4  5  1  0
  5  6  1  0
  6  7  2  0
  7  8  1  0
  8  9  1  0
  9  3  1  0
  9  5  1  0
  1 10  1  0
  2 11  1  0
  2 12  1  0
  3 13  1  0
  4 14  1  0
  4 15  1  0
  5 16  1  0
  6 17  1  0
  7 18  1  0
  8 19  1  0
  8 20  1  0
  9 21  1  0
M  END
