
     RDKit          3D

 16 17  0  0  0  0  0  0  0  0999 V2000
   -2.9957   -0.2801   -0.0641 O   0  0  0  0  0  0  0  0  0  0  0  0
   -1.9054    0.4884   -0.3585 C   0  0  0  0  0  0  0  0  0  0  0  0
   -0.5953   -0.2144   -0.2435 C   0  0  0  0  0  0  0  0  0  0  0  0
    0.6040    0.6830   -0.5823 C   0  0  0  0  0  0  0  0  0  0  0  0
    1.7498    0.0519   -1.0401 O   0  0  0  0  0  0  0  0  0  0  0  0
    2.4522   -0.1388    0.1655 C   0  0  0  0  0  0  0  0  0  0  0  0
    1.4855   -0.5143    1.0953 O   0  0  0  0  0  0  0  0  0  0  0  0
    0.3561    0.1966    0.7992 C   0  0  0  0  0  0  0  0  0  0  0  0
   -3.2056   -0.2404    0.9184 H   0  0  0  0  0  0  0  0  0  0  0  0
   -1.9272    1.4167    0.2623 H   0  0  0  0  0  0  0  0  0  0  0  0
   -2.0346    0.8587   -1.4168 H   0  0  0  0  0  0  0  0  0  0  0  0
   -0.5656   -1.2093   -0.7334 H   0  0  0  0  0  0  0  0  0  0  0  0
    0.4345    1.7279   -0.8304 H   0  0  0  0  0  0  0  0  0  0  0  0
    3.2380   -0.9085    0.0265 H   0  0  0  0  0  0  0  0  0  0  0  0
    2.9249    0.8339    0.4106 H   0  0  0  0  0  0  0  0  0  0  0  0
   -0.0158    0.8796    1.5913 H   0  0  0  0  0  0  0  0  0  0  0  0
  1  2  1  0
  2  3  1  0
  3  4  1  0
  4  5  1  0
  5  6  1  0
  6  7  1  0
  7  8  1  0
  8  3  1  0
  8  4  1  0
  1  9  1  0
  2 10  1  0
  2 11  1  0
  3 12  1  0
  4 13  1  0
  6 14  1  0
  6 15  1  0
  8 16  1  0
M  END
