
     RDKit          3D

 17 18  0  0  0  0  0  0  0  0999 V2000
    1.6128    0.8326   -1.3999 O   0  0  0  0  0  0  0  0  0  0  0  0
    1.5675    0.3329   -0.0978 C   0  0  0  0  0  0  0  0  0  0  0  0
    0.1446    0.1022    0.2922 C   0  0  0  0  0  0  0  0  0  0  0  0
   -0.1646   -0.3918    1.5393 O   0  0  0  0  0  0  0  0  0  0  0  0
   -0.5495   -1.7144    1.2244 C   0  0  0  0  0  0  0  0  0  0  0  0
   -1.5450   -1.4360    0.2599 O   0  0  0  0  0  0  0  0  0  0  0  0
   -0.8098   -0.6101   -0.6092 C   0  0  0  0  0  0  0  0  0  0  0  0
   -0.8920    0.8606   -0.5040 C   0  0  0  0  0  0  0  0  0  0  0  0
   -1.8446    1.4920    0.2735 O   0  0  0  0  0  0  0  0  0  0  0  0
    1.9429    1.7646   -1.4443 H   0  0  0  0  0  0  0  0  0  0  0  0
    2.1433   -0.6036    0.0242 H   0  0  0  0  0  0  0  0  0  0  0  0
    2.0007    1.0910    0.6046 H   0  0  0  0  0  0  0  0  0  0  0  0
    0.2511   -2.2473    0.6697 H   0  0  0  0  0  0  0  0  0  0  0  0
   -0.9360   -2.2582    2.0825 H   0  0  0  0  0  0  0  0  0  0  0  0
   -0.3534   -1.0575   -1.5038 H   0  0  0  0  0  0  0  0  0  0  0  0
   -0.5347    1.4331   -1.3619 H   0  0  0  0  0  0  0  0  0  0  0  0
   -2.0335    2.4100   -0.0494 H   0  0  0  0  0  0  0  0  0  0  0  0
  1  2  1  0
  2  3  1  0
  3  4  1  0
  4  5  1  0
  5  6  1  0
  6  7  1  0
  7  8  1  0
  8  9  1  0
  7  3  1  0
  8  3  1  0
  1 10  1  0
  2 11  1  0
  2 12  1  0
  5 13  1  0
  5 14  1  0
  7 15  1  0
  8 16  1  0
  9 17  1  0
M  END
