
     RDKit          3D

 19 20  0  0  0  0  0  0  0  0999 V2000
    2.5686   -0.0594    1.1100 O   0  0  0  0  0  0  0  0  0  0  0  0
    2.2941   -0.0667   -0.2310 C   0  0  0  0  0  0  0  0  0  0  0  0
    0.8515   -0.0461   -0.5771 C   0  0  0  0  0  0  0  0  0  0  0  0
    0.1127    1.1349   -0.0780 C   0  0  0  0  0  0  0  0  0  0  0  0
   -1.1508    0.7797    0.0860 C   0  0  0  0  0  0  0  0  0  0  0  0
   -2.6085    0.6052    0.3436 C   0  0  0  0  0  0  0  0  0  0  0  0
   -2.3451   -0.7740    0.5725 O   0  0  0  0  0  0  0  0  0  0  0  0
   -1.3157   -0.6788   -0.3089 C   0  0  0  0  0  0  0  0  0  0  0  0
    0.0630   -1.1582    0.1370 C   0  0  0  0  0  0  0  0  0  0  0  0
    1.9978    0.5593    1.6306 H   0  0  0  0  0  0  0  0  0  0  0  0
    2.7460   -0.9677   -0.6840 H   0  0  0  0  0  0  0  0  0  0  0  0
    2.7719    0.8065   -0.7149 H   0  0  0  0  0  0  0  0  0  0  0  0
    0.7094   -0.1251   -1.6571 H   0  0  0  0  0  0  0  0  0  0  0  0
    0.5075    2.1464    0.1323 H   0  0  0  0  0  0  0  0  0  0  0  0
   -3.1764    0.7101   -0.5782 H   0  0  0  0  0  0  0  0  0  0  0  0
   -3.0106    1.1279    1.2164 H   0  0  0  0  0  0  0  0  0  0  0  0
   -1.5003   -0.8302   -1.3693 H   0  0  0  0  0  0  0  0  0  0  0  0
    0.1712   -1.0182    1.2159 H   0  0  0  0  0  0  0  0  0  0  0  0
    0.3134   -2.1457   -0.2460 H   0  0  0  0  0  0  0  0  0  0  0  0
  1  2  1  0
  2  3  1  0
  3  4  1  0
  4  5  2  0
  5  6  1  0
  6  7  1  0
  7  8  1  0
  8  9  1  0
  9  3  1  0
  8  5  1  0
  1 10  1  0
  2 11  1  0
  2 12  1  0
  3 13  1  0
  4 14  1  0
  6 15  1  0
  6 16  1  0
  8 17  1  0
  9 18  1  0
  9 19  1  0
M  END
