
     RDKit          3D

 21 22  0  0  0  0  0  0  0  0999 V2000
    2.7897   -0.5469    0.5667 O   0  0  0  0  0  0  0  0  0  0  0  0
    1.8829    0.4452    0.2445 C   0  0  0  0  0  0  0  0  0  0  0  0
    0.6715   -0.1901   -0.3373 C   0  0  0  0  0  0  0  0  0  0  0  0
   -0.3873    0.8622   -0.7218 C   0  0  0  0  0  0  0  0  0  0  0  0
   -0.7785    1.3169    0.6256 C   0  0  0  0  0  0  0  0  0  0  0  0
   -0.5830    0.3295    1.5204 C   0  0  0  0  0  0  0  0  0  0  0  0
   -0.2172   -0.8659    0.6884 C   0  0  0  0  0  0  0  0  0  0  0  0
   -1.4362   -1.1622   -0.1647 C   0  0  0  0  0  0  0  0  0  0  0  0
   -1.4432   -0.0937   -1.2662 C   0  0  0  0  0  0  0  0  0  0  0  0
    3.5141   -0.6417   -0.1281 H   0  0  0  0  0  0  0  0  0  0  0  0
    2.2911    1.1544   -0.5233 H   0  0  0  0  0  0  0  0  0  0  0  0
    1.6651    1.0118    1.1561 H   0  0  0  0  0  0  0  0  0  0  0  0
    0.8686   -0.7778   -1.2211 H   0  0  0  0  0  0  0  0  0  0  0  0
   -0.0387    1.5980   -1.4078 H   0  0  0  0  0  0  0  0  0  0  0  0
   -1.1667    2.2938    0.8780 H   0  0  0  0  0  0  0  0  0  0  0  0
   -0.6543    0.3290    2.5802 H   0  0  0  0  0  0  0  0  0  0  0  0
    0.2032   -1.6839    1.2141 H   0  0  0  0  0  0  0  0  0  0  0  0
   -2.3365   -1.0666    0.4768 H   0  0  0  0  0  0  0  0  0  0  0  0
   -1.3993   -2.1753   -0.6081 H   0  0  0  0  0  0  0  0  0  0  0  0
   -2.4203    0.3785   -1.3767 H   0  0  0  0  0  0  0  0  0  0  0  0
   -1.0252   -0.5154   -2.1957 H   0  0  0  0  0  0  0  0  0  0  0  0
  1  2  1  0
  2  3  1  0
  3  4  1  0
  4  5  1  0
  5  6  2  0
  6  7  1  0
  7  8  1  0
  8  9  1  0
  7  3  1  0
  9  4  1  0
  1 10  1  0
  2 11  1  0
  2 12  1  0
  3 13  1  0
  4 14  1  0
  5 15  1  0
  6 16  1  0
  7 17  1  0
  8 18  1  0
  8 19  1  0
  9 20  1  0
  9 21  1  0
M  END
