
     RDKit          3D

 21 22  0  0  0  0  0  0  0  0999 V2000
    2.0539    1.7653    0.2084 O   0  0  0  0  0  0  0  0  0  0  0  0
    1.5630    0.6225    0.8883 C   0  0  0  0  0  0  0  0  0  0  0  0
    1.1940   -0.3921   -0.1340 C   0  0  0  0  0  0  0  0  0  0  0  0
    0.1657   -0.1137   -1.1683 C   0  0  0  0  0  0  0  0  0  0  0  0
   -0.7670    1.0263   -0.8555 C   0  0  0  0  0  0  0  0  0  0  0  0
   -1.6567    0.6056    0.2529 C   0  0  0  0  0  0  0  0  0  0  0  0
   -1.3001   -0.8057    0.5463 C   0  0  0  0  0  0  0  0  0  0  0  0
   -0.0445   -1.1707   -0.1316 C   0  0  0  0  0  0  0  0  0  0  0  0
    0.0206   -2.5331   -0.5111 O   0  0  0  0  0  0  0  0  0  0  0  0
    2.9907    1.5908   -0.1067 H   0  0  0  0  0  0  0  0  0  0  0  0
    0.7509    0.9910    1.5132 H   0  0  0  0  0  0  0  0  0  0  0  0
    2.4168    0.2274    1.4952 H   0  0  0  0  0  0  0  0  0  0  0  0
    2.0903   -0.9401   -0.5360 H   0  0  0  0  0  0  0  0  0  0  0  0
    0.2501   -0.4850   -2.1962 H   0  0  0  0  0  0  0  0  0  0  0  0
   -1.3550    1.2811   -1.7502 H   0  0  0  0  0  0  0  0  0  0  0  0
   -0.1820    1.9414   -0.5696 H   0  0  0  0  0  0  0  0  0  0  0  0
   -1.6042    1.2630    1.1601 H   0  0  0  0  0  0  0  0  0  0  0  0
   -2.7383    0.6975   -0.0637 H   0  0  0  0  0  0  0  0  0  0  0  0
   -2.1215   -1.4506    0.1418 H   0  0  0  0  0  0  0  0  0  0  0  0
   -1.3004   -1.0346    1.6510 H   0  0  0  0  0  0  0  0  0  0  0  0
   -0.4262   -3.0864    0.1657 H   0  0  0  0  0  0  0  0  0  0  0  0
  1  2  1  0
  2  3  1  0
  3  4  1  0
  4  5  1  0
  5  6  1  0
  6  7  1  0
  7  8  1  0
  8  9  1  0
  8  3  1  0
  8  4  1  0
  1 10  1  0
  2 11  1  0
  2 12  1  0
  3 13  1  0
  4 14  1  0
  5 15  1  0
  5 16  1  0
  6 17  1  0
  6 18  1  0
  7 19  1  0
  7 20  1  0
  9 21  1  0
M  END
