
     RDKit          3D

 17 18  0  0  0  0  0  0  0  0999 V2000
    2.6720   -0.4855   -0.5029 O   0  0  0  0  0  0  0  0  0  0  0  0
    1.7628   -0.7938    0.5175 C   0  0  0  0  0  0  0  0  0  0  0  0
    0.4505   -0.2380    0.1425 C   0  0  0  0  0  0  0  0  0  0  0  0
    0.3779    1.2525    0.1855 C   0  0  0  0  0  0  0  0  0  0  0  0
   -0.9306    1.5119    0.3644 C   0  0  0  0  0  0  0  0  0  0  0  0
   -1.5722    0.1827    0.4343 C   0  0  0  0  0  0  0  0  0  0  0  0
   -1.4995   -0.5242   -0.9194 C   0  0  0  0  0  0  0  0  0  0  0  0
   -0.0975   -0.6968   -1.0240 O   0  0  0  0  0  0  0  0  0  0  0  0
   -0.5497   -0.5425    1.1038 O   0  0  0  0  0  0  0  0  0  0  0  0
    2.1518   -0.5562   -1.3473 H   0  0  0  0  0  0  0  0  0  0  0  0
    1.7082   -1.8833    0.6345 H   0  0  0  0  0  0  0  0  0  0  0  0
    2.1096   -0.3621    1.4788 H   0  0  0  0  0  0  0  0  0  0  0  0
    1.1918    1.9510    0.0934 H   0  0  0  0  0  0  0  0  0  0  0  0
   -1.3569    2.4998    0.4338 H   0  0  0  0  0  0  0  0  0  0  0  0
   -2.5255    0.1313    0.9147 H   0  0  0  0  0  0  0  0  0  0  0  0
   -1.9101    0.0682   -1.7317 H   0  0  0  0  0  0  0  0  0  0  0  0
   -1.9825   -1.5150   -0.7778 H   0  0  0  0  0  0  0  0  0  0  0  0
  1  2  1  0
  2  3  1  0
  3  4  1  0
  4  5  2  0
  5  6  1  0
  6  7  1  0
  7  8  1  0
  6  9  1  0
  8  3  1  0
  9  3  1  0
  1 10  1  0
  2 11  1  0
  2 12  1  0
  4 13  1  0
  5 14  1  0
  6 15  1  0
  7 16  1  0
  7 17  1  0
M  END
