
     RDKit          3D

 19 20  0  0  0  0  0  0  0  0999 V2000
    2.3318   -0.0019   -0.7496 O   0  0  0  0  0  0  0  0  0  0  0  0
    1.7007   -0.2226    0.4684 C   0  0  0  0  0  0  0  0  0  0  0  0
    0.2482    0.1082    0.4511 C   0  0  0  0  0  0  0  0  0  0  0  0
   -0.2723   -0.1512    1.7158 O   0  0  0  0  0  0  0  0  0  0  0  0
   -0.0875    1.4924    0.0635 C   0  0  0  0  0  0  0  0  0  0  0  0
   -1.3791    1.4214   -0.4755 O   0  0  0  0  0  0  0  0  0  0  0  0
   -1.4901    0.2127   -1.1189 C   0  0  0  0  0  0  0  0  0  0  0  0
   -1.9618   -0.9254   -0.2675 C   0  0  0  0  0  0  0  0  0  0  0  0
   -0.5096   -0.7387   -0.5602 C   0  0  0  0  0  0  0  0  0  0  0  0
    3.1737   -0.5408   -0.7905 H   0  0  0  0  0  0  0  0  0  0  0  0
    2.1976    0.2579    1.3111 H   0  0  0  0  0  0  0  0  0  0  0  0
    1.7817   -1.3339    0.6526 H   0  0  0  0  0  0  0  0  0  0  0  0
    0.3328    0.1268    2.4485 H   0  0  0  0  0  0  0  0  0  0  0  0
   -0.1814    2.1755    0.9523 H   0  0  0  0  0  0  0  0  0  0  0  0
    0.5513    1.9345   -0.7201 H   0  0  0  0  0  0  0  0  0  0  0  0
   -1.7406    0.1592   -2.1893 H   0  0  0  0  0  0  0  0  0  0  0  0
   -2.4591   -1.7690   -0.7933 H   0  0  0  0  0  0  0  0  0  0  0  0
   -2.2836   -0.7471    0.7647 H   0  0  0  0  0  0  0  0  0  0  0  0
    0.0474   -1.4582   -1.1633 H   0  0  0  0  0  0  0  0  0  0  0  0
  1  2  1  0
  2  3  1  0
  3  4  1  0
  3  5  1  0
  5  6  1  0
  6  7  1  0
  7  8  1  0
  8  9  1  0
  9  3  1  0
  9  7  1  0
  1 10  1  0
  2 11  1  0
  2 12  1  0
  4 13  1  0
  5 14  1  0
  5 15  1  0
  7 16  1  0
  8 17  1  0
  8 18  1  0
  9 19  1  0
M  END
