
     RDKit          3D

 19 20  0  0  0  0  0  0  0  0999 V2000
   -2.9139   -0.7391    0.6597 O   0  0  0  0  0  0  0  0  0  0  0  0
   -2.2396    0.1128   -0.1895 C   0  0  0  0  0  0  0  0  0  0  0  0
   -0.9233    0.5829    0.3694 C   0  0  0  0  0  0  0  0  0  0  0  0
    0.0857   -0.4744    0.6835 C   0  0  0  0  0  0  0  0  0  0  0  0
    1.0272    0.2104   -0.2903 C   0  0  0  0  0  0  0  0  0  0  0  0
    2.0828   -0.5470   -0.9952 C   0  0  0  0  0  0  0  0  0  0  0  0
    3.3015   -0.3235   -0.3154 O   0  0  0  0  0  0  0  0  0  0  0  0
    1.2053    1.5703   -0.2188 O   0  0  0  0  0  0  0  0  0  0  0  0
    0.0408    1.0548   -0.7280 C   0  0  0  0  0  0  0  0  0  0  0  0
   -3.8698   -0.7683    0.3711 H   0  0  0  0  0  0  0  0  0  0  0  0
   -2.1485   -0.2851   -1.2199 H   0  0  0  0  0  0  0  0  0  0  0  0
   -2.8656    1.0484   -0.3019 H   0  0  0  0  0  0  0  0  0  0  0  0
   -1.0219    1.3044    1.2047 H   0  0  0  0  0  0  0  0  0  0  0  0
   -0.1600   -1.5037    0.3689 H   0  0  0  0  0  0  0  0  0  0  0  0
    0.5084   -0.4811    1.6923 H   0  0  0  0  0  0  0  0  0  0  0  0
    1.9389   -1.6443   -0.9807 H   0  0  0  0  0  0  0  0  0  0  0  0
    2.2570   -0.1993   -2.0451 H   0  0  0  0  0  0  0  0  0  0  0  0
    4.0520   -0.2523   -0.9478 H   0  0  0  0  0  0  0  0  0  0  0  0
   -0.3569    1.3340   -1.6983 H   0  0  0  0  0  0  0  0  0  0  0  0
  1  2  1  0
  2  3  1  0
  3  4  1  0
  4  5  1  0
  5  6  1  0
  6  7  1  0
  5  8  1  0
  8  9  1  0
  9  3  1  0
  9  5  1  0
  1 10  1  0
  2 11  1  0
  2 12  1  0
  3 13  1  0
  4 14  1  0
  4 15  1  0
  6 16  1  0
  6 17  1  0
  7 18  1  0
  9 19  1  0
M  END
