
     RDKit          3D

 21 22  0  0  0  0  0  0  0  0999 V2000
    1.8831   -1.4977   -1.2899 O   0  0  0  0  0  0  0  0  0  0  0  0
    1.9600   -0.6961   -0.1516 C   0  0  0  0  0  0  0  0  0  0  0  0
    0.7837    0.1963   -0.0173 C   0  0  0  0  0  0  0  0  0  0  0  0
    0.8607    1.5170    0.0107 C   0  0  0  0  0  0  0  0  0  0  0  0
   -0.4944    2.0967    0.1523 C   0  0  0  0  0  0  0  0  0  0  0  0
   -1.2580    0.9793    0.8219 C   0  0  0  0  0  0  0  0  0  0  0  0
   -0.6165   -0.2204    0.1119 C   0  0  0  0  0  0  0  0  0  0  0  0
   -1.0641   -1.5818    0.3517 C   0  0  0  0  0  0  0  0  0  0  0  0
   -1.3827   -0.8761   -0.9456 C   0  0  0  0  0  0  0  0  0  0  0  0
    2.8121   -1.7974   -1.4744 H   0  0  0  0  0  0  0  0  0  0  0  0
    2.9118   -0.1295   -0.2065 H   0  0  0  0  0  0  0  0  0  0  0  0
    2.0713   -1.3764    0.7306 H   0  0  0  0  0  0  0  0  0  0  0  0
    1.7788    2.1302   -0.0585 H   0  0  0  0  0  0  0  0  0  0  0  0
   -0.4829    3.0226    0.7583 H   0  0  0  0  0  0  0  0  0  0  0  0
   -0.9003    2.2773   -0.8653 H   0  0  0  0  0  0  0  0  0  0  0  0
   -2.3439    1.0061    0.6053 H   0  0  0  0  0  0  0  0  0  0  0  0
   -1.0100    0.9252    1.8820 H   0  0  0  0  0  0  0  0  0  0  0  0
   -1.8812   -1.7244    1.1055 H   0  0  0  0  0  0  0  0  0  0  0  0
   -0.3764   -2.4223    0.3022 H   0  0  0  0  0  0  0  0  0  0  0  0
   -2.4129   -0.5698   -1.1590 H   0  0  0  0  0  0  0  0  0  0  0  0
   -0.8383   -1.2588   -1.8508 H   0  0  0  0  0  0  0  0  0  0  0  0
  1  2  1  0
  2  3  1  0
  3  4  2  0
  4  5  1  0
  5  6  1  0
  6  7  1  0
  7  8  1  0
  8  9  1  0
  7  3  1  0
  9  7  1  0
  1 10  1  0
  2 11  1  0
  2 12  1  0
  4 13  1  0
  5 14  1  0
  5 15  1  0
  6 16  1  0
  6 17  1  0
  8 18  1  0
  8 19  1  0
  9 20  1  0
  9 21  1  0
M  END
