
     RDKit          3D

 21 22  0  0  0  0  0  0  0  0999 V2000
   -2.4949    0.7152   -0.8235 O   0  0  0  0  0  0  0  0  0  0  0  0
   -2.5375   -0.3336    0.1219 C   0  0  0  0  0  0  0  0  0  0  0  0
   -1.1263   -0.6645    0.4614 C   0  0  0  0  0  0  0  0  0  0  0  0
   -0.3234   -1.1081   -0.7299 C   0  0  0  0  0  0  0  0  0  0  0  0
    0.9082   -0.6700   -0.6479 C   0  0  0  0  0  0  0  0  0  0  0  0
    2.3662   -0.3163   -0.8354 C   0  0  0  0  0  0  0  0  0  0  0  0
    2.1558    0.8664    0.1516 C   0  0  0  0  0  0  0  0  0  0  0  0
    1.0491    0.0417    0.7031 C   0  0  0  0  0  0  0  0  0  0  0  0
   -0.3317    0.6241    0.8106 C   0  0  0  0  0  0  0  0  0  0  0  0
   -2.4566    1.5780   -0.3380 H   0  0  0  0  0  0  0  0  0  0  0  0
   -3.0992   -1.1815   -0.2613 H   0  0  0  0  0  0  0  0  0  0  0  0
   -3.0718    0.0705    0.9856 H   0  0  0  0  0  0  0  0  0  0  0  0
   -1.0602   -1.3402    1.3155 H   0  0  0  0  0  0  0  0  0  0  0  0
   -0.7273   -1.7075   -1.5347 H   0  0  0  0  0  0  0  0  0  0  0  0
    2.9864   -1.1145   -0.4213 H   0  0  0  0  0  0  0  0  0  0  0  0
    2.6327    0.0728   -1.8193 H   0  0  0  0  0  0  0  0  0  0  0  0
    1.8059    1.7735   -0.3673 H   0  0  0  0  0  0  0  0  0  0  0  0
    3.0417    1.0339    0.7668 H   0  0  0  0  0  0  0  0  0  0  0  0
    1.3192   -0.6797    1.5007 H   0  0  0  0  0  0  0  0  0  0  0  0
   -0.4466    1.3652    0.0067 H   0  0  0  0  0  0  0  0  0  0  0  0
   -0.5895    0.9744    1.8113 H   0  0  0  0  0  0  0  0  0  0  0  0
  1  2  1  0
  2  3  1  0
  3  4  1  0
  4  5  2  0
  5  6  1  0
  6  7  1  0
  7  8  1  0
  8  9  1  0
  9  3  1  0
  8  5  1  0
  1 10  1  0
  2 11  1  0
  2 12  1  0
  3 13  1  0
  4 14  1  0
  6 15  1  0
  6 16  1  0
  7 17  1  0
  7 18  1  0
  8 19  1  0
  9 20  1  0
  9 21  1  0
M  END
