
     RDKit          3D

 18 18  0  0  0  0  0  0  0  0999 V2000
    2.3464   -1.3026    0.1005 O   0  0  0  0  0  0  0  0  0  0  0  0
    1.6203   -0.2468   -0.4776 C   0  0  0  0  0  0  0  0  0  0  0  0
    0.6738    0.3381    0.5103 C   0  0  0  0  0  0  0  0  0  0  0  0
   -0.1491    1.5056   -0.0814 C   0  0  0  0  0  0  0  0  0  0  0  0
   -0.7594    0.2496    0.5080 C   0  0  0  0  0  0  0  0  0  0  0  0
   -1.4113    0.5122    1.7384 O   0  0  0  0  0  0  0  0  0  0  0  0
   -1.6039   -0.6146   -0.3616 C   0  0  0  0  0  0  0  0  0  0  0  0
   -1.0851   -0.9376   -1.5751 O   0  0  0  0  0  0  0  0  0  0  0  0
    2.9351   -0.8946    0.8047 H   0  0  0  0  0  0  0  0  0  0  0  0
    1.2096   -0.5273   -1.4382 H   0  0  0  0  0  0  0  0  0  0  0  0
    2.4007    0.5463   -0.6863 H   0  0  0  0  0  0  0  0  0  0  0  0
    1.1916    0.5858    1.4859 H   0  0  0  0  0  0  0  0  0  0  0  0
   -0.2452    1.5573   -1.1779 H   0  0  0  0  0  0  0  0  0  0  0  0
   -0.1372    2.4380    0.4929 H   0  0  0  0  0  0  0  0  0  0  0  0
   -0.9766    0.0572    2.4801 H   0  0  0  0  0  0  0  0  0  0  0  0
   -1.8092   -1.5634    0.2055 H   0  0  0  0  0  0  0  0  0  0  0  0
   -2.5728   -0.0638   -0.5422 H   0  0  0  0  0  0  0  0  0  0  0  0
   -1.6280   -1.6395   -1.9861 H   0  0  0  0  0  0  0  0  0  0  0  0
  1  2  1  0
  2  3  1  0
  3  4  1  0
  4  5  1  0
  5  6  1  0
  5  7  1  0
  7  8  1  0
  5  3  1  0
  1  9  1  0
  2 10  1  0
  2 11  1  0
  3 12  1  0
  4 13  1  0
  4 14  1  0
  6 15  1  0
  7 16  1  0
  7 17  1  0
  8 18  1  0
M  END
