
     RDKit          3D

 19 20  0  0  0  0  0  0  0  0999 V2000
    2.6371    0.5950   -0.9219 O   0  0  0  0  0  0  0  0  0  0  0  0
    2.2107   -0.4300   -0.0514 C   0  0  0  0  0  0  0  0  0  0  0  0
    0.7521   -0.2663    0.1804 C   0  0  0  0  0  0  0  0  0  0  0  0
    0.0810   -0.0610    1.3140 C   0  0  0  0  0  0  0  0  0  0  0  0
   -1.3662   -0.0445    0.9989 C   0  0  0  0  0  0  0  0  0  0  0  0
   -1.6042    1.1896    0.1786 C   0  0  0  0  0  0  0  0  0  0  0  0
   -0.9030    1.0152   -0.9401 C   0  0  0  0  0  0  0  0  0  0  0  0
   -0.2674   -0.3099   -0.9045 C   0  0  0  0  0  0  0  0  0  0  0  0
   -1.3704   -1.0800   -0.1443 C   0  0  0  0  0  0  0  0  0  0  0  0
    2.5346    1.4425   -0.4292 H   0  0  0  0  0  0  0  0  0  0  0  0
    2.7910   -0.3978    0.8809 H   0  0  0  0  0  0  0  0  0  0  0  0
    2.3753   -1.3965   -0.5913 H   0  0  0  0  0  0  0  0  0  0  0  0
    0.5191    0.0695    2.2864 H   0  0  0  0  0  0  0  0  0  0  0  0
   -2.0510   -0.2351    1.7783 H   0  0  0  0  0  0  0  0  0  0  0  0
   -2.2250    2.0289    0.4695 H   0  0  0  0  0  0  0  0  0  0  0  0
   -0.8178    1.7329   -1.7407 H   0  0  0  0  0  0  0  0  0  0  0  0
    0.0247   -0.7569   -1.8203 H   0  0  0  0  0  0  0  0  0  0  0  0
   -1.0332   -2.0547    0.1838 H   0  0  0  0  0  0  0  0  0  0  0  0
   -2.2874   -1.0411   -0.7270 H   0  0  0  0  0  0  0  0  0  0  0  0
  1  2  1  0
  2  3  1  0
  3  4  2  0
  4  5  1  0
  5  6  1  0
  6  7  2  0
  7  8  1  0
  8  9  1  0
  8  3  1  0
  9  5  1  0
  1 10  1  0
  2 11  1  0
  2 12  1  0
  4 13  1  0
  5 14  1  0
  6 15  1  0
  7 16  1  0
  8 17  1  0
  9 18  1  0
  9 19  1  0
M  END
