
     RDKit          3D

 19 20  0  0  0  0  0  0  0  0999 V2000
    2.7513   -0.8248   -0.6989 O   0  0  0  0  0  0  0  0  0  0  0  0
    2.0113   -0.2676    0.3415 C   0  0  0  0  0  0  0  0  0  0  0  0
    0.6366    0.0136   -0.1727 C   0  0  0  0  0  0  0  0  0  0  0  0
   -0.3591   -1.1081   -0.0236 C   0  0  0  0  0  0  0  0  0  0  0  0
   -1.7202   -0.7355   -0.4959 C   0  0  0  0  0  0  0  0  0  0  0  0
   -2.1811    0.4688    0.2391 C   0  0  0  0  0  0  0  0  0  0  0  0
   -1.2990    1.4332    0.4710 C   0  0  0  0  0  0  0  0  0  0  0  0
    0.0987    1.3553    0.0335 C   0  0  0  0  0  0  0  0  0  0  0  0
    0.4254    0.8624   -1.2246 O   0  0  0  0  0  0  0  0  0  0  0  0
    3.6659   -0.4480   -0.7393 H   0  0  0  0  0  0  0  0  0  0  0  0
    2.0418   -0.8673    1.2498 H   0  0  0  0  0  0  0  0  0  0  0  0
    2.5061    0.7008    0.5785 H   0  0  0  0  0  0  0  0  0  0  0  0
   -0.0073   -1.9679   -0.6587 H   0  0  0  0  0  0  0  0  0  0  0  0
   -0.4116   -1.5002    1.0206 H   0  0  0  0  0  0  0  0  0  0  0  0
   -1.6550   -0.4617   -1.5645 H   0  0  0  0  0  0  0  0  0  0  0  0
   -2.3984   -1.5968   -0.3187 H   0  0  0  0  0  0  0  0  0  0  0  0
   -3.2191    0.5063    0.5538 H   0  0  0  0  0  0  0  0  0  0  0  0
   -1.6712    2.2973    1.0101 H   0  0  0  0  0  0  0  0  0  0  0  0
    0.7849    2.1403    0.3992 H   0  0  0  0  0  0  0  0  0  0  0  0
  1  2  1  0
  2  3  1  0
  3  4  1  0
  4  5  1  0
  5  6  1  0
  6  7  2  0
  7  8  1  0
  8  9  1  0
  8  3  1  0
  9  3  1  0
  1 10  1  0
  2 11  1  0
  2 12  1  0
  4 13  1  0
  4 14  1  0
  5 15  1  0
  5 16  1  0
  6 17  1  0
  7 18  1  0
  8 19  1  0
M  END
