
     RDKit          3D

 19 21  0  0  0  0  0  0  0  0999 V2000
    2.6533   -0.4309   -0.6964 O   0  0  0  0  0  0  0  0  0  0  0  0
    1.8942    0.5864   -0.0781 C   0  0  0  0  0  0  0  0  0  0  0  0
    0.5640   -0.0263    0.2724 C   0  0  0  0  0  0  0  0  0  0  0  0
   -0.1195   -0.5191   -0.9890 C   0  0  0  0  0  0  0  0  0  0  0  0
   -1.2401   -1.4563   -0.5981 C   0  0  0  0  0  0  0  0  0  0  0  0
   -2.3295   -0.7044   -0.2617 O   0  0  0  0  0  0  0  0  0  0  0  0
   -1.9372    0.6149   -0.0926 C   0  0  0  0  0  0  0  0  0  0  0  0
   -0.5752    0.9513    0.4219 C   0  0  0  0  0  0  0  0  0  0  0  0
   -0.8298    0.8059   -1.0109 C   0  0  0  0  0  0  0  0  0  0  0  0
    2.7052   -1.1542   -0.0012 H   0  0  0  0  0  0  0  0  0  0  0  0
    2.4395    0.9520    0.8153 H   0  0  0  0  0  0  0  0  0  0  0  0
    1.7867    1.4085   -0.8162 H   0  0  0  0  0  0  0  0  0  0  0  0
    0.6708   -0.7832    1.0487 H   0  0  0  0  0  0  0  0  0  0  0  0
    0.5021   -0.7884   -1.8242 H   0  0  0  0  0  0  0  0  0  0  0  0
   -0.9031   -2.0219    0.3203 H   0  0  0  0  0  0  0  0  0  0  0  0
   -1.4102   -2.2208   -1.3692 H   0  0  0  0  0  0  0  0  0  0  0  0
   -2.7109    1.3527    0.0450 H   0  0  0  0  0  0  0  0  0  0  0  0
   -0.4575    1.8925    0.9491 H   0  0  0  0  0  0  0  0  0  0  0  0
   -0.7027    1.5414   -1.7722 H   0  0  0  0  0  0  0  0  0  0  0  0
  1  2  1  0
  2  3  1  0
  3  4  1  0
  4  5  1  0
  5  6  1  0
  6  7  1  0
  7  8  1  0
  8  9  1  0
  8  3  1  0
  9  4  1  0
  9  7  1  0
  1 10  1  0
  2 11  1  0
  2 12  1  0
  3 13  1  0
  4 14  1  0
  5 15  1  0
  5 16  1  0
  7 17  1  0
  8 18  1  0
  9 19  1  0
M  END
