
     RDKit          3D

 21 22  0  0  0  0  0  0  0  0999 V2000
    2.9618   -0.1771    0.2274 O   0  0  0  0  0  0  0  0  0  0  0  0
    1.8965    0.6273   -0.1862 C   0  0  0  0  0  0  0  0  0  0  0  0
    0.6830   -0.2923   -0.3035 C   0  0  0  0  0  0  0  0  0  0  0  0
    0.3287   -0.9559    0.9755 C   0  0  0  0  0  0  0  0  0  0  0  0
   -0.9650   -0.8762    1.3674 O   0  0  0  0  0  0  0  0  0  0  0  0
   -1.8406   -0.2736    0.5306 C   0  0  0  0  0  0  0  0  0  0  0  0
   -1.6269   -0.6155   -0.9328 C   0  0  0  0  0  0  0  0  0  0  0  0
   -0.4985    0.4070   -0.8996 C   0  0  0  0  0  0  0  0  0  0  0  0
   -1.2952    1.1222    0.2010 C   0  0  0  0  0  0  0  0  0  0  0  0
    3.5554    0.2849    0.8652 H   0  0  0  0  0  0  0  0  0  0  0  0
    1.7163    1.4850    0.4639 H   0  0  0  0  0  0  0  0  0  0  0  0
    2.1329    0.9314   -1.2387 H   0  0  0  0  0  0  0  0  0  0  0  0
    1.0010   -1.0767   -1.0524 H   0  0  0  0  0  0  0  0  0  0  0  0
    1.0108   -0.5337    1.7717 H   0  0  0  0  0  0  0  0  0  0  0  0
    0.6124   -2.0488    0.9442 H   0  0  0  0  0  0  0  0  0  0  0  0
   -2.8631   -0.2985    0.8881 H   0  0  0  0  0  0  0  0  0  0  0  0
   -2.4468   -0.3143   -1.5791 H   0  0  0  0  0  0  0  0  0  0  0  0
   -1.2369   -1.6491   -1.0805 H   0  0  0  0  0  0  0  0  0  0  0  0
   -0.3459    0.9855   -1.8011 H   0  0  0  0  0  0  0  0  0  0  0  0
   -0.6824    1.5104    1.0252 H   0  0  0  0  0  0  0  0  0  0  0  0
   -2.0976    1.7577   -0.1864 H   0  0  0  0  0  0  0  0  0  0  0  0
  1  2  1  0
  2  3  1  0
  3  4  1  0
  4  5  1  0
  5  6  1  0
  6  7  1  0
  7  8  1  0
  8  9  1  0
  8  3  1  0
  9  6  1  0
  1 10  1  0
  2 11  1  0
  2 12  1  0
  3 13  1  0
  4 14  1  0
  4 15  1  0
  6 16  1  0
  7 17  1  0
  7 18  1  0
  8 19  1  0
  9 20  1  0
  9 21  1  0
M  END
