
     RDKit          3D

 19 19  0  0  0  0  0  0  0  0999 V2000
   -2.3123    0.3109    0.7013 O   0  0  0  0  0  0  0  0  0  0  0  0
   -1.8847   -0.2167   -0.5146 C   0  0  0  0  0  0  0  0  0  0  0  0
   -0.3957   -0.3352   -0.6054 C   0  0  0  0  0  0  0  0  0  0  0  0
    0.0703   -1.2346    0.4862 C   0  0  0  0  0  0  0  0  0  0  0  0
    1.2413   -0.8011    0.9433 C   0  0  0  0  0  0  0  0  0  0  0  0
    1.6623    0.4098    0.2121 C   0  0  0  0  0  0  0  0  0  0  0  0
    2.5475    0.1394   -0.8200 O   0  0  0  0  0  0  0  0  0  0  0  0
    0.3384    0.9380   -0.3550 C   0  0  0  0  0  0  0  0  0  0  0  0
   -0.2733    1.7011    0.6141 O   0  0  0  0  0  0  0  0  0  0  0  0
   -2.6349   -0.4163    1.3196 H   0  0  0  0  0  0  0  0  0  0  0  0
   -2.3034   -1.2480   -0.5850 H   0  0  0  0  0  0  0  0  0  0  0  0
   -2.3278    0.3501   -1.3561 H   0  0  0  0  0  0  0  0  0  0  0  0
   -0.1481   -0.7815   -1.5813 H   0  0  0  0  0  0  0  0  0  0  0  0
   -0.4959   -2.0978    0.8200 H   0  0  0  0  0  0  0  0  0  0  0  0
    1.8209   -1.2572    1.7388 H   0  0  0  0  0  0  0  0  0  0  0  0
    2.0470    1.1571    0.9060 H   0  0  0  0  0  0  0  0  0  0  0  0
    2.4851   -0.8036   -1.1401 H   0  0  0  0  0  0  0  0  0  0  0  0
    0.5291    1.5388   -1.2751 H   0  0  0  0  0  0  0  0  0  0  0  0
    0.0340    2.6470    0.4910 H   0  0  0  0  0  0  0  0  0  0  0  0
  1  2  1  0
  2  3  1  0
  3  4  1  0
  4  5  2  0
  5  6  1  0
  6  7  1  0
  6  8  1  0
  8  9  1  0
  8  3  1  0
  1 10  1  0
  2 11  1  0
  2 12  1  0
  3 13  1  0
  4 14  1  0
  5 15  1  0
  6 16  1  0
  7 17  1  0
  8 18  1  0
  9 19  1  0
M  END
