
     RDKit          3D

 17 19  0  0  0  0  0  0  0  0999 V2000
    2.5561   -0.2243    0.5192 O   0  0  0  0  0  0  0  0  0  0  0  0
    1.4480   -1.0890    0.4329 C   0  0  0  0  0  0  0  0  0  0  0  0
    0.2318   -0.2931    0.4532 C   0  0  0  0  0  0  0  0  0  0  0  0
    0.1917    0.9611   -0.4136 C   0  0  0  0  0  0  0  0  0  0  0  0
   -0.8506    1.2659    0.6448 C   0  0  0  0  0  0  0  0  0  0  0  0
   -0.0598    0.5148    1.5229 O   0  0  0  0  0  0  0  0  0  0  0  0
   -1.9649    0.3148    0.2643 C   0  0  0  0  0  0  0  0  0  0  0  0
   -2.1422   -0.8141    1.0259 O   0  0  0  0  0  0  0  0  0  0  0  0
   -1.0869   -0.9477    0.1203 C   0  0  0  0  0  0  0  0  0  0  0  0
    2.6396    0.1743   -0.3888 H   0  0  0  0  0  0  0  0  0  0  0  0
    1.5144   -1.6867   -0.4742 H   0  0  0  0  0  0  0  0  0  0  0  0
    1.5000   -1.7466    1.3289 H   0  0  0  0  0  0  0  0  0  0  0  0
   -0.2228    0.7512   -1.3984 H   0  0  0  0  0  0  0  0  0  0  0  0
    1.1035    1.5666   -0.3571 H   0  0  0  0  0  0  0  0  0  0  0  0
   -1.0750    2.2762    0.8790 H   0  0  0  0  0  0  0  0  0  0  0  0
   -2.5790    0.5229   -0.6189 H   0  0  0  0  0  0  0  0  0  0  0  0
   -1.2038   -1.5464   -0.7847 H   0  0  0  0  0  0  0  0  0  0  0  0
  1  2  1  0
  2  3  1  0
  3  4  1  0
  4  5  1  0
  5  6  1  0
  5  7  1  0
  7  8  1  0
  8  9  1  0
  6  3  1  0
  9  7  1  0
  9  3  1  0
  1 10  1  0
  2 11  1  0
  2 12  1  0
  4 13  1  0
  4 14  1  0
  5 15  1  0
  7 16  1  0
  9 17  1  0
M  END
