
     RDKit          3D

 21 22  0  0  0  0  0  0  0  0999 V2000
    1.1104   -1.8734   -1.0240 O   0  0  0  0  0  0  0  0  0  0  0  0
    1.4106   -1.0011    0.0265 C   0  0  0  0  0  0  0  0  0  0  0  0
    0.2891   -0.0394    0.2926 C   0  0  0  0  0  0  0  0  0  0  0  0
   -1.0190   -0.6833    0.6699 C   0  0  0  0  0  0  0  0  0  0  0  0
   -1.6906   -0.7710   -0.7082 C   0  0  0  0  0  0  0  0  0  0  0  0
   -1.3711    0.4337   -1.2783 O   0  0  0  0  0  0  0  0  0  0  0  0
   -0.1216    0.8171   -0.8761 C   0  0  0  0  0  0  0  0  0  0  0  0
   -0.2482    1.9836    0.1142 C   0  0  0  0  0  0  0  0  0  0  0  0
    0.6631    1.1966    1.0365 C   0  0  0  0  0  0  0  0  0  0  0  0
    1.9598   -2.4007   -1.1686 H   0  0  0  0  0  0  0  0  0  0  0  0
    2.3469   -0.4690   -0.1275 H   0  0  0  0  0  0  0  0  0  0  0  0
    1.4847   -1.6595    0.9400 H   0  0  0  0  0  0  0  0  0  0  0  0
   -0.9280   -1.6690    1.1186 H   0  0  0  0  0  0  0  0  0  0  0  0
   -1.5809    0.0453    1.2866 H   0  0  0  0  0  0  0  0  0  0  0  0
   -1.1938   -1.5730   -1.2934 H   0  0  0  0  0  0  0  0  0  0  0  0
   -2.7541   -0.9467   -0.5414 H   0  0  0  0  0  0  0  0  0  0  0  0
    0.6348    0.9814   -1.6525 H   0  0  0  0  0  0  0  0  0  0  0  0
    0.1544    2.9016   -0.3017 H   0  0  0  0  0  0  0  0  0  0  0  0
   -1.2499    2.0750    0.5670 H   0  0  0  0  0  0  0  0  0  0  0  0
    0.3879    1.1782    2.0893 H   0  0  0  0  0  0  0  0  0  0  0  0
    1.7155    1.4735    0.8303 H   0  0  0  0  0  0  0  0  0  0  0  0
  1  2  1  0
  2  3  1  0
  3  4  1  0
  4  5  1  0
  5  6  1  0
  6  7  1  0
  7  8  1  0
  8  9  1  0
  7  3  1  0
  9  3  1  0
  1 10  1  0
  2 11  1  0
  2 12  1  0
  4 13  1  0
  4 14  1  0
  5 15  1  0
  5 16  1  0
  7 17  1  0
  8 18  1  0
  8 19  1  0
  9 20  1  0
  9 21  1  0
M  END
