
     RDKit          3D

 17 18  0  0  0  0  0  0  0  0999 V2000
   -2.5614    0.7780   -0.7136 O   0  0  0  0  0  0  0  0  0  0  0  0
   -1.7580   -0.3060   -0.4656 C   0  0  0  0  0  0  0  0  0  0  0  0
   -0.5942    0.1260    0.4383 C   0  0  0  0  0  0  0  0  0  0  0  0
   -1.1133    0.6263    1.6557 O   0  0  0  0  0  0  0  0  0  0  0  0
    0.4928    0.7606   -0.1789 C   0  0  0  0  0  0  0  0  0  0  0  0
    1.4277    0.4030   -1.1047 O   0  0  0  0  0  0  0  0  0  0  0  0
    2.4732   -0.0215   -0.2437 C   0  0  0  0  0  0  0  0  0  0  0  0
    1.8409   -0.4659    0.9448 O   0  0  0  0  0  0  0  0  0  0  0  0
    0.5681   -0.6618    0.5173 C   0  0  0  0  0  0  0  0  0  0  0  0
   -3.5040    0.4811   -0.7082 H   0  0  0  0  0  0  0  0  0  0  0  0
   -2.3279   -1.0435    0.1251 H   0  0  0  0  0  0  0  0  0  0  0  0
   -1.3778   -0.7050   -1.4239 H   0  0  0  0  0  0  0  0  0  0  0  0
   -1.2112   -0.1030    2.3195 H   0  0  0  0  0  0  0  0  0  0  0  0
    0.9425    1.6110    0.4276 H   0  0  0  0  0  0  0  0  0  0  0  0
    3.0554    0.8844    0.0233 H   0  0  0  0  0  0  0  0  0  0  0  0
    3.0712   -0.8193   -0.6973 H   0  0  0  0  0  0  0  0  0  0  0  0
    0.5758   -1.5444   -0.1975 H   0  0  0  0  0  0  0  0  0  0  0  0
  1  2  1  0
  2  3  1  0
  3  4  1  0
  3  5  1  0
  5  6  1  0
  6  7  1  0
  7  8  1  0
  8  9  1  0
  9  3  1  0
  9  5  1  0
  1 10  1  0
  2 11  1  0
  2 12  1  0
  4 13  1  0
  5 14  1  0
  7 15  1  0
  7 16  1  0
  9 17  1  0
M  END
