
     RDKit          3D

 19 20  0  0  0  0  0  0  0  0999 V2000
    2.7696    0.1616    0.7312 O   0  0  0  0  0  0  0  0  0  0  0  0
    2.1887    0.5544   -0.4769 C   0  0  0  0  0  0  0  0  0  0  0  0
    0.7504    0.1690   -0.4527 C   0  0  0  0  0  0  0  0  0  0  0  0
    0.2114   -0.6554   -1.3303 C   0  0  0  0  0  0  0  0  0  0  0  0
   -1.2062   -0.8391   -1.0500 C   0  0  0  0  0  0  0  0  0  0  0  0
   -1.5294    0.1777    0.0030 C   0  0  0  0  0  0  0  0  0  0  0  0
   -1.0661   -0.1497    1.3689 C   0  0  0  0  0  0  0  0  0  0  0  0
   -1.7366    0.4864    2.4118 O   0  0  0  0  0  0  0  0  0  0  0  0
   -0.1921    0.6759    0.5470 C   0  0  0  0  0  0  0  0  0  0  0  0
    3.2657   -0.6649    0.6302 H   0  0  0  0  0  0  0  0  0  0  0  0
    2.3259    1.6379   -0.6533 H   0  0  0  0  0  0  0  0  0  0  0  0
    2.7331    0.0296   -1.2754 H   0  0  0  0  0  0  0  0  0  0  0  0
    0.7513   -1.1470   -2.1693 H   0  0  0  0  0  0  0  0  0  0  0  0
   -1.4547   -1.8509   -0.6425 H   0  0  0  0  0  0  0  0  0  0  0  0
   -1.8555   -0.6508   -1.9401 H   0  0  0  0  0  0  0  0  0  0  0  0
   -2.2745    0.9691   -0.1982 H   0  0  0  0  0  0  0  0  0  0  0  0
   -0.8719   -1.2199    1.5839 H   0  0  0  0  0  0  0  0  0  0  0  0
   -2.6827    0.5564    2.1264 H   0  0  0  0  0  0  0  0  0  0  0  0
   -0.1263    1.7596    0.7862 H   0  0  0  0  0  0  0  0  0  0  0  0
  1  2  1  0
  2  3  1  0
  3  4  2  0
  4  5  1  0
  5  6  1  0
  6  7  1  0
  7  8  1  0
  7  9  1  0
  9  3  1  0
  9  6  1  0
  1 10  1  0
  2 11  1  0
  2 12  1  0
  4 13  1  0
  5 14  1  0
  5 15  1  0
  6 16  1  0
  7 17  1  0
  8 18  1  0
  9 19  1  0
M  END
