
     RDKit          3D

 16 17  0  0  0  0  0  0  0  0999 V2000
    2.8353   -0.4801    0.2655 O   0  0  0  0  0  0  0  0  0  0  0  0
    1.6741   -0.4947   -0.4988 C   0  0  0  0  0  0  0  0  0  0  0  0
    0.6784    0.5523   -0.0111 C   0  0  0  0  0  0  0  0  0  0  0  0
    0.2587    0.3674    1.3699 O   0  0  0  0  0  0  0  0  0  0  0  0
   -0.5812    0.2390    0.3021 C   0  0  0  0  0  0  0  0  0  0  0  0
   -1.8901    0.9459    0.2310 C   0  0  0  0  0  0  0  0  0  0  0  0
   -2.4982   -0.3051    0.0458 O   0  0  0  0  0  0  0  0  0  0  0  0
   -1.3025   -1.0295   -0.0057 C   0  0  0  0  0  0  0  0  0  0  0  0
    3.1317    0.4568    0.3425 H   0  0  0  0  0  0  0  0  0  0  0  0
    1.9351   -0.2273   -1.5212 H   0  0  0  0  0  0  0  0  0  0  0  0
    1.1660   -1.4580   -0.5046 H   0  0  0  0  0  0  0  0  0  0  0  0
    1.0666    1.5941   -0.2106 H   0  0  0  0  0  0  0  0  0  0  0  0
   -1.9379    1.6104   -0.6519 H   0  0  0  0  0  0  0  0  0  0  0  0
   -2.2645    1.3766    1.1831 H   0  0  0  0  0  0  0  0  0  0  0  0
   -1.0918   -1.3314   -1.0713 H   0  0  0  0  0  0  0  0  0  0  0  0
   -1.1797   -1.8163    0.7354 H   0  0  0  0  0  0  0  0  0  0  0  0
  1  2  1  0
  2  3  1  0
  3  4  1  0
  4  5  1  0
  5  6  1  0
  6  7  1  0
  7  8  1  0
  5  3  1  0
  8  5  1  0
  1  9  1  0
  2 10  1  0
  2 11  1  0
  3 12  1  0
  6 13  1  0
  6 14  1  0
  8 15  1  0
  8 16  1  0
M  END
