
     RDKit          3D

 19 20  0  0  0  0  0  0  0  0999 V2000
    2.7250   -1.1001   -0.8946 O   0  0  0  0  0  0  0  0  0  0  0  0
    2.1490   -0.0176   -0.2839 C   0  0  0  0  0  0  0  0  0  0  0  0
    0.6719   -0.1959   -0.0796 C   0  0  0  0  0  0  0  0  0  0  0  0
   -0.0817   -1.2351   -0.4125 C   0  0  0  0  0  0  0  0  0  0  0  0
   -1.4970   -1.0212   -0.0393 C   0  0  0  0  0  0  0  0  0  0  0  0
   -1.4565    0.1036    0.9598 C   0  0  0  0  0  0  0  0  0  0  0  0
   -2.1663    1.2279    0.5911 O   0  0  0  0  0  0  0  0  0  0  0  0
   -1.1381    1.5553   -0.3172 C   0  0  0  0  0  0  0  0  0  0  0  0
   -0.1780    0.8285    0.5576 C   0  0  0  0  0  0  0  0  0  0  0  0
    3.4433   -1.4365   -0.2703 H   0  0  0  0  0  0  0  0  0  0  0  0
    2.2747    0.8906   -0.9066 H   0  0  0  0  0  0  0  0  0  0  0  0
    2.5821    0.2046    0.7237 H   0  0  0  0  0  0  0  0  0  0  0  0
    0.2801   -2.1263   -0.8935 H   0  0  0  0  0  0  0  0  0  0  0  0
   -2.1324   -0.7397   -0.8999 H   0  0  0  0  0  0  0  0  0  0  0  0
   -1.8969   -1.9700    0.4014 H   0  0  0  0  0  0  0  0  0  0  0  0
   -1.4862   -0.1746    2.0172 H   0  0  0  0  0  0  0  0  0  0  0  0
   -1.3328    1.1009   -1.2942 H   0  0  0  0  0  0  0  0  0  0  0  0
   -1.0456    2.6763   -0.3112 H   0  0  0  0  0  0  0  0  0  0  0  0
    0.2854    1.4292    1.3521 H   0  0  0  0  0  0  0  0  0  0  0  0
  1  2  1  0
  2  3  1  0
  3  4  2  0
  4  5  1  0
  5  6  1  0
  6  7  1  0
  7  8  1  0
  8  9  1  0
  9  3  1  0
  9  6  1  0
  1 10  1  0
  2 11  1  0
  2 12  1  0
  4 13  1  0
  5 14  1  0
  5 15  1  0
  6 16  1  0
  8 17  1  0
  8 18  1  0
  9 19  1  0
M  END
