
     RDKit          3D

 19 20  0  0  0  0  0  0  0  0999 V2000
    3.3048    0.1532   -0.1926 O   0  0  0  0  0  0  0  0  0  0  0  0
    2.1921   -0.3387    0.4666 C   0  0  0  0  0  0  0  0  0  0  0  0
    1.0869   -0.5460   -0.5772 C   0  0  0  0  0  0  0  0  0  0  0  0
   -0.1597   -1.0569   -0.0559 C   0  0  0  0  0  0  0  0  0  0  0  0
   -1.5954   -1.0457   -0.1382 C   0  0  0  0  0  0  0  0  0  0  0  0
   -2.2660    0.0912    0.1363 C   0  0  0  0  0  0  0  0  0  0  0  0
   -1.5886    1.3481    0.5240 C   0  0  0  0  0  0  0  0  0  0  0  0
   -0.2389    1.2112    0.3826 O   0  0  0  0  0  0  0  0  0  0  0  0
   -0.0018    0.2421   -0.6062 C   0  0  0  0  0  0  0  0  0  0  0  0
    3.0849    1.0714   -0.4842 H   0  0  0  0  0  0  0  0  0  0  0  0
    1.8903    0.3890    1.2387 H   0  0  0  0  0  0  0  0  0  0  0  0
    2.4727   -1.3295    0.9146 H   0  0  0  0  0  0  0  0  0  0  0  0
    1.5608   -0.9044   -1.5427 H   0  0  0  0  0  0  0  0  0  0  0  0
    0.1388   -2.0236    0.2399 H   0  0  0  0  0  0  0  0  0  0  0  0
   -2.2586   -1.8604   -0.4064 H   0  0  0  0  0  0  0  0  0  0  0  0
   -3.3603    0.1395    0.0847 H   0  0  0  0  0  0  0  0  0  0  0  0
   -1.9208    2.2083   -0.1271 H   0  0  0  0  0  0  0  0  0  0  0  0
   -1.9114    1.6542    1.5560 H   0  0  0  0  0  0  0  0  0  0  0  0
   -0.4298    0.5970   -1.5947 H   0  0  0  0  0  0  0  0  0  0  0  0
  1  2  1  0
  2  3  1  0
  3  4  1  0
  4  5  1  0
  5  6  2  0
  6  7  1  0
  7  8  1  0
  8  9  1  0
  9  3  1  0
  9  4  1  0
  1 10  1  0
  2 11  1  0
  2 12  1  0
  3 13  1  0
  4 14  1  0
  5 15  1  0
  6 16  1  0
  7 17  1  0
  7 18  1  0
  9 19  1  0
M  END
