
     RDKit          3D

 19 20  0  0  0  0  0  0  0  0999 V2000
   -3.1117   -0.1397   -0.4459 O   0  0  0  0  0  0  0  0  0  0  0  0
   -2.2330    0.1039    0.6264 C   0  0  0  0  0  0  0  0  0  0  0  0
   -0.8975    0.4494    0.0231 C   0  0  0  0  0  0  0  0  0  0  0  0
   -0.2746   -0.7600   -0.6766 C   0  0  0  0  0  0  0  0  0  0  0  0
    1.1339   -0.2452   -0.8783 C   0  0  0  0  0  0  0  0  0  0  0  0
    2.1609   -0.4070    0.1672 C   0  0  0  0  0  0  0  0  0  0  0  0
    3.4645   -0.1079   -0.2226 O   0  0  0  0  0  0  0  0  0  0  0  0
    1.2527    0.7635    0.2662 C   0  0  0  0  0  0  0  0  0  0  0  0
    0.0752    0.7164    0.9654 O   0  0  0  0  0  0  0  0  0  0  0  0
   -3.5054    0.7165   -0.7878 H   0  0  0  0  0  0  0  0  0  0  0  0
   -2.6040    1.0144    1.1332 H   0  0  0  0  0  0  0  0  0  0  0  0
   -2.1537   -0.7722    1.2689 H   0  0  0  0  0  0  0  0  0  0  0  0
   -0.9749    1.2641   -0.7118 H   0  0  0  0  0  0  0  0  0  0  0  0
   -0.7856   -1.0133   -1.6094 H   0  0  0  0  0  0  0  0  0  0  0  0
   -0.2866   -1.5973    0.0657 H   0  0  0  0  0  0  0  0  0  0  0  0
    1.3688    0.1674   -1.8838 H   0  0  0  0  0  0  0  0  0  0  0  0
    2.0864   -1.2667    0.8588 H   0  0  0  0  0  0  0  0  0  0  0  0
    3.6586   -0.6608   -1.0111 H   0  0  0  0  0  0  0  0  0  0  0  0
    1.6258    1.7744    0.0407 H   0  0  0  0  0  0  0  0  0  0  0  0
  1  2  1  0
  2  3  1  0
  3  4  1  0
  4  5  1  0
  5  6  1  0
  6  7  1  0
  6  8  1  0
  8  9  1  0
  9  3  1  0
  8  5  1  0
  1 10  1  0
  2 11  1  0
  2 12  1  0
  3 13  1  0
  4 14  1  0
  4 15  1  0
  5 16  1  0
  6 17  1  0
  7 18  1  0
  8 19  1  0
M  END
