
     RDKit          3D

 19 21  0  0  0  0  0  0  0  0999 V2000
    2.4894    0.8074   -0.5027 O   0  0  0  0  0  0  0  0  0  0  0  0
    1.8957   -0.4045   -0.8446 C   0  0  0  0  0  0  0  0  0  0  0  0
    0.4448   -0.4582   -0.4580 C   0  0  0  0  0  0  0  0  0  0  0  0
    0.2705   -0.2857    1.0098 C   0  0  0  0  0  0  0  0  0  0  0  0
    0.5526    1.0860    0.7938 O   0  0  0  0  0  0  0  0  0  0  0  0
   -0.1655    0.9082   -0.4137 C   0  0  0  0  0  0  0  0  0  0  0  0
   -1.5651    0.7643    0.1242 C   0  0  0  0  0  0  0  0  0  0  0  0
   -2.2105   -0.5483    0.2686 C   0  0  0  0  0  0  0  0  0  0  0  0
   -1.2084   -0.2224    1.2961 C   0  0  0  0  0  0  0  0  0  0  0  0
    3.0475    0.7193    0.3083 H   0  0  0  0  0  0  0  0  0  0  0  0
    2.0294   -0.6561   -1.9161 H   0  0  0  0  0  0  0  0  0  0  0  0
    2.4098   -1.2047   -0.2445 H   0  0  0  0  0  0  0  0  0  0  0  0
   -0.0808   -1.2494   -0.9699 H   0  0  0  0  0  0  0  0  0  0  0  0
    0.9080   -0.8041    1.6965 H   0  0  0  0  0  0  0  0  0  0  0  0
    0.0249    1.6051   -1.1990 H   0  0  0  0  0  0  0  0  0  0  0  0
   -2.0070    1.7002    0.4799 H   0  0  0  0  0  0  0  0  0  0  0  0
   -3.2678   -0.5146    0.6219 H   0  0  0  0  0  0  0  0  0  0  0  0
   -2.0619   -1.3242   -0.5040 H   0  0  0  0  0  0  0  0  0  0  0  0
   -1.5058    0.0815    2.2970 H   0  0  0  0  0  0  0  0  0  0  0  0
  1  2  1  0
  2  3  1  0
  3  4  1  0
  4  5  1  0
  5  6  1  0
  6  7  1  0
  7  8  1  0
  8  9  1  0
  6  3  1  0
  9  7  1  0
  9  4  1  0
  1 10  1  0
  2 11  1  0
  2 12  1  0
  3 13  1  0
  4 14  1  0
  6 15  1  0
  7 16  1  0
  8 17  1  0
  8 18  1  0
  9 19  1  0
M  END
