
     RDKit          3D

 21 23  0  0  0  0  0  0  0  0999 V2000
   -2.5764   -0.7239    0.1997 O   0  0  0  0  0  0  0  0  0  0  0  0
   -1.5145   -0.5942    1.1073 C   0  0  0  0  0  0  0  0  0  0  0  0
   -0.4120    0.2762    0.5566 C   0  0  0  0  0  0  0  0  0  0  0  0
   -0.6882    1.6872    0.1850 C   0  0  0  0  0  0  0  0  0  0  0  0
   -0.5686    0.6630   -0.8750 C   0  0  0  0  0  0  0  0  0  0  0  0
    0.7382    0.3680   -1.5555 C   0  0  0  0  0  0  0  0  0  0  0  0
    1.7502    0.0846   -0.4838 C   0  0  0  0  0  0  0  0  0  0  0  0
    1.6787   -1.2460    0.2249 C   0  0  0  0  0  0  0  0  0  0  0  0
    1.0155   -0.0725    0.8091 C   0  0  0  0  0  0  0  0  0  0  0  0
   -2.9137   -1.6450    0.1373 H   0  0  0  0  0  0  0  0  0  0  0  0
   -1.9127   -0.2304    2.0609 H   0  0  0  0  0  0  0  0  0  0  0  0
   -1.0716   -1.6266    1.2057 H   0  0  0  0  0  0  0  0  0  0  0  0
   -1.6733    2.1581    0.3516 H   0  0  0  0  0  0  0  0  0  0  0  0
    0.1480    2.4163    0.2466 H   0  0  0  0  0  0  0  0  0  0  0  0
   -1.4855    0.4371   -1.4338 H   0  0  0  0  0  0  0  0  0  0  0  0
    1.0505    1.1138   -2.2873 H   0  0  0  0  0  0  0  0  0  0  0  0
    0.5942   -0.5932   -2.1275 H   0  0  0  0  0  0  0  0  0  0  0  0
    2.6926    0.6524   -0.5134 H   0  0  0  0  0  0  0  0  0  0  0  0
    2.6225   -1.5733    0.7167 H   0  0  0  0  0  0  0  0  0  0  0  0
    1.0341   -2.0487   -0.1839 H   0  0  0  0  0  0  0  0  0  0  0  0
    1.4919    0.4972    1.6588 H   0  0  0  0  0  0  0  0  0  0  0  0
  1  2  1  0
  2  3  1  0
  3  4  1  0
  4  5  1  0
  5  6  1  0
  6  7  1  0
  7  8  1  0
  8  9  1  0
  5  3  1  0
  9  7  1  0
  9  3  1  0
  1 10  1  0
  2 11  1  0
  2 12  1  0
  4 13  1  0
  4 14  1  0
  5 15  1  0
  6 16  1  0
  6 17  1  0
  7 18  1  0
  8 19  1  0
  8 20  1  0
  9 21  1  0
M  END
