
     RDKit          3D

 23 24  0  0  0  0  0  0  0  0999 V2000
    3.0591    0.3892    0.8496 O   0  0  0  0  0  0  0  0  0  0  0  0
    2.2144    0.3821   -0.2504 C   0  0  0  0  0  0  0  0  0  0  0  0
    0.9296   -0.4068    0.0454 C   0  0  0  0  0  0  0  0  0  0  0  0
    0.1793    0.1838    1.1862 C   0  0  0  0  0  0  0  0  0  0  0  0
   -1.3060    0.1963    0.9761 C   0  0  0  0  0  0  0  0  0  0  0  0
   -1.7889   -0.9621    0.1391 C   0  0  0  0  0  0  0  0  0  0  0  0
   -1.2916   -0.1589   -1.0704 C   0  0  0  0  0  0  0  0  0  0  0  0
    0.1612   -0.4820   -1.2368 C   0  0  0  0  0  0  0  0  0  0  0  0
   -1.5311    1.0847   -0.2586 C   0  0  0  0  0  0  0  0  0  0  0  0
    2.8159   -0.2739    1.5257 H   0  0  0  0  0  0  0  0  0  0  0  0
    1.9527    1.4175   -0.5373 H   0  0  0  0  0  0  0  0  0  0  0  0
    2.7407   -0.0774   -1.1104 H   0  0  0  0  0  0  0  0  0  0  0  0
    1.2953   -1.4183    0.3718 H   0  0  0  0  0  0  0  0  0  0  0  0
    0.4899   -0.2716    2.1380 H   0  0  0  0  0  0  0  0  0  0  0  0
    0.4803    1.2713    1.2515 H   0  0  0  0  0  0  0  0  0  0  0  0
   -1.8944    0.4551    1.8459 H   0  0  0  0  0  0  0  0  0  0  0  0
   -2.8934   -1.0087    0.1598 H   0  0  0  0  0  0  0  0  0  0  0  0
   -1.2483   -1.9050    0.2430 H   0  0  0  0  0  0  0  0  0  0  0  0
   -1.8800   -0.2971   -1.9684 H   0  0  0  0  0  0  0  0  0  0  0  0
    0.6197    0.1297   -2.0583 H   0  0  0  0  0  0  0  0  0  0  0  0
    0.2183   -1.5451   -1.6077 H   0  0  0  0  0  0  0  0  0  0  0  0
   -2.5641    1.4161   -0.2748 H   0  0  0  0  0  0  0  0  0  0  0  0
   -0.7587    1.8811   -0.3589 H   0  0  0  0  0  0  0  0  0  0  0  0
  1  2  1  0
  2  3  1  0
  3  4  1  0
  4  5  1  0
  5  6  1  0
  6  7  1  0
  7  8  1  0
  7  9  1  0
  8  3  1  0
  9  5  1  0
  1 10  1  0
  2 11  1  0
  2 12  1  0
  3 13  1  0
  4 14  1  0
  4 15  1  0
  5 16  1  0
  6 17  1  0
  6 18  1  0
  7 19  1  0
  8 20  1  0
  8 21  1  0
  9 22  1  0
  9 23  1  0
M  END
