
     RDKit          3D

 19 20  0  0  0  0  0  0  0  0999 V2000
   -1.7021    1.7194   -0.5764 O   0  0  0  0  0  0  0  0  0  0  0  0
   -1.6105    0.3441   -0.5440 C   0  0  0  0  0  0  0  0  0  0  0  0
   -0.6755   -0.1501    0.5413 C   0  0  0  0  0  0  0  0  0  0  0  0
   -1.0206    0.2061    1.8443 O   0  0  0  0  0  0  0  0  0  0  0  0
   -0.1498   -1.5810    0.4269 C   0  0  0  0  0  0  0  0  0  0  0  0
    0.7265   -0.4449    0.2787 C   0  0  0  0  0  0  0  0  0  0  0  0
    1.4744   -0.1013   -0.9436 C   0  0  0  0  0  0  0  0  0  0  0  0
    2.1824    0.7958    0.0808 C   0  0  0  0  0  0  0  0  0  0  0  0
    1.7589   -0.0966    1.0942 O   0  0  0  0  0  0  0  0  0  0  0  0
   -2.5885    2.0218   -0.2606 H   0  0  0  0  0  0  0  0  0  0  0  0
   -2.6380   -0.0812   -0.3583 H   0  0  0  0  0  0  0  0  0  0  0  0
   -1.2987   -0.0385   -1.5345 H   0  0  0  0  0  0  0  0  0  0  0  0
   -1.7534   -0.4151    2.1293 H   0  0  0  0  0  0  0  0  0  0  0  0
   -0.4833   -2.1002   -0.5108 H   0  0  0  0  0  0  0  0  0  0  0  0
   -0.2071   -2.2415    1.3056 H   0  0  0  0  0  0  0  0  0  0  0  0
    2.1283   -0.9253   -1.3145 H   0  0  0  0  0  0  0  0  0  0  0  0
    0.9806    0.4546   -1.7367 H   0  0  0  0  0  0  0  0  0  0  0  0
    1.6149    1.7611    0.1252 H   0  0  0  0  0  0  0  0  0  0  0  0
    3.2616    0.8729   -0.0469 H   0  0  0  0  0  0  0  0  0  0  0  0
  1  2  1  0
  2  3  1  0
  3  4  1  0
  3  5  1  0
  5  6  1  0
  6  7  1  0
  7  8  1  0
  8  9  1  0
  6  3  1  0
  9  6  1  0
  1 10  1  0
  2 11  1  0
  2 12  1  0
  4 13  1  0
  5 14  1  0
  5 15  1  0
  7 16  1  0
  7 17  1  0
  8 18  1  0
  8 19  1  0
M  END
