
     RDKit          3D

 19 20  0  0  0  0  0  0  0  0999 V2000
   -2.8041   -0.0608    0.9818 O   0  0  0  0  0  0  0  0  0  0  0  0
   -2.0367    0.2794   -0.1236 C   0  0  0  0  0  0  0  0  0  0  0  0
   -0.6269    0.6796    0.2505 C   0  0  0  0  0  0  0  0  0  0  0  0
    0.0192    0.9914   -0.9496 O   0  0  0  0  0  0  0  0  0  0  0  0
    0.8300   -0.0818   -1.2707 C   0  0  0  0  0  0  0  0  0  0  0  0
    2.0874    0.0656   -0.4332 C   0  0  0  0  0  0  0  0  0  0  0  0
    1.5585   -0.3144    0.9566 C   0  0  0  0  0  0  0  0  0  0  0  0
    0.1095   -0.5887    0.6529 C   0  0  0  0  0  0  0  0  0  0  0  0
    0.2267   -1.1900   -0.6254 O   0  0  0  0  0  0  0  0  0  0  0  0
   -3.7605    0.0148    0.7090 H   0  0  0  0  0  0  0  0  0  0  0  0
   -2.5838    1.0941   -0.6515 H   0  0  0  0  0  0  0  0  0  0  0  0
   -2.0165   -0.5816   -0.8123 H   0  0  0  0  0  0  0  0  0  0  0  0
   -0.5786    1.4642    0.9979 H   0  0  0  0  0  0  0  0  0  0  0  0
    1.0062   -0.2428   -2.3189 H   0  0  0  0  0  0  0  0  0  0  0  0
    2.8203   -0.6435   -0.8064 H   0  0  0  0  0  0  0  0  0  0  0  0
    2.4124    1.1244   -0.4505 H   0  0  0  0  0  0  0  0  0  0  0  0
    2.0282   -1.2852    1.2069 H   0  0  0  0  0  0  0  0  0  0  0  0
    1.7188    0.4752    1.6902 H   0  0  0  0  0  0  0  0  0  0  0  0
   -0.4102   -1.1999    1.3681 H   0  0  0  0  0  0  0  0  0  0  0  0
  1  2  1  0
  2  3  1  0
  3  4  1  0
  4  5  1  0
  5  6  1  0
  6  7  1  0
  7  8  1  0
  8  9  1  0
  8  3  1  0
  9  5  1  0
  1 10  1  0
  2 11  1  0
  2 12  1  0
  3 13  1  0
  5 14  1  0
  6 15  1  0
  6 16  1  0
  7 17  1  0
  7 18  1  0
  8 19  1  0
M  END
