
     RDKit          3D

 17 18  0  0  0  0  0  0  0  0999 V2000
    2.7451    0.6597    0.2677 O   0  0  0  0  0  0  0  0  0  0  0  0
    2.0074   -0.1845   -0.5271 C   0  0  0  0  0  0  0  0  0  0  0  0
    0.5638   -0.2095   -0.1595 C   0  0  0  0  0  0  0  0  0  0  0  0
   -0.0166    0.4827    0.8182 C   0  0  0  0  0  0  0  0  0  0  0  0
   -1.4301    0.0366    0.8168 C   0  0  0  0  0  0  0  0  0  0  0  0
   -2.0743    0.6046   -0.4227 C   0  0  0  0  0  0  0  0  0  0  0  0
   -1.4528   -0.1402   -1.4294 O   0  0  0  0  0  0  0  0  0  0  0  0
   -0.5404   -0.9912   -0.7798 C   0  0  0  0  0  0  0  0  0  0  0  0
   -1.2712   -1.3082    0.3949 O   0  0  0  0  0  0  0  0  0  0  0  0
    3.6357    0.7697   -0.1484 H   0  0  0  0  0  0  0  0  0  0  0  0
    2.1388   -0.0234   -1.6130 H   0  0  0  0  0  0  0  0  0  0  0  0
    2.3878   -1.2302   -0.3389 H   0  0  0  0  0  0  0  0  0  0  0  0
    0.5259    1.1965    1.4254 H   0  0  0  0  0  0  0  0  0  0  0  0
   -1.9690    0.1508    1.7287 H   0  0  0  0  0  0  0  0  0  0  0  0
   -3.1548    0.3602   -0.4476 H   0  0  0  0  0  0  0  0  0  0  0  0
   -1.8506    1.6720   -0.4658 H   0  0  0  0  0  0  0  0  0  0  0  0
   -0.2447   -1.8458   -1.3478 H   0  0  0  0  0  0  0  0  0  0  0  0
  1  2  1  0
  2  3  1  0
  3  4  2  0
  4  5  1  0
  5  6  1  0
  6  7  1  0
  7  8  1  0
  8  9  1  0
  8  3  1  0
  9  5  1  0
  1 10  1  0
  2 11  1  0
  2 12  1  0
  4 13  1  0
  5 14  1  0
  6 15  1  0
  6 16  1  0
  8 17  1  0
M  END
