
     RDKit          3D

 23 24  0  0  0  0  0  0  0  0999 V2000
   -3.2562   -1.0180   -0.5069 O   0  0  0  0  0  0  0  0  0  0  0  0
   -2.6221    0.1977   -0.2765 C   0  0  0  0  0  0  0  0  0  0  0  0
   -1.2001    0.2017   -0.7843 C   0  0  0  0  0  0  0  0  0  0  0  0
   -0.3319   -0.8692   -0.1226 C   0  0  0  0  0  0  0  0  0  0  0  0
    0.7011    0.1901    0.0848 C   0  0  0  0  0  0  0  0  0  0  0  0
    1.9253    0.1486   -0.7350 C   0  0  0  0  0  0  0  0  0  0  0  0
    2.6271   -0.4702    0.4841 C   0  0  0  0  0  0  0  0  0  0  0  0
    1.5026    0.1617    1.3193 C   0  0  0  0  0  0  0  0  0  0  0  0
   -0.3060    1.2357   -0.1296 C   0  0  0  0  0  0  0  0  0  0  0  0
   -3.9643   -1.1061    0.1936 H   0  0  0  0  0  0  0  0  0  0  0  0
   -3.1765    0.9640   -0.8727 H   0  0  0  0  0  0  0  0  0  0  0  0
   -2.6634    0.5251    0.7744 H   0  0  0  0  0  0  0  0  0  0  0  0
   -1.1234    0.1376   -1.8867 H   0  0  0  0  0  0  0  0  0  0  0  0
   -0.7278   -1.2205    0.8508 H   0  0  0  0  0  0  0  0  0  0  0  0
    0.0286   -1.6444   -0.8154 H   0  0  0  0  0  0  0  0  0  0  0  0
    1.8609   -0.5120   -1.6036 H   0  0  0  0  0  0  0  0  0  0  0  0
    2.3898    1.1466   -0.9104 H   0  0  0  0  0  0  0  0  0  0  0  0
    2.4892   -1.5502    0.4610 H   0  0  0  0  0  0  0  0  0  0  0  0
    3.6205   -0.0699    0.6795 H   0  0  0  0  0  0  0  0  0  0  0  0
    1.8657    1.1857    1.6223 H   0  0  0  0  0  0  0  0  0  0  0  0
    1.1681   -0.4645    2.1573 H   0  0  0  0  0  0  0  0  0  0  0  0
   -0.7919    1.5805    0.8151 H   0  0  0  0  0  0  0  0  0  0  0  0
   -0.0154    2.0868   -0.7985 H   0  0  0  0  0  0  0  0  0  0  0  0
  1  2  1  0
  2  3  1  0
  3  4  1  0
  4  5  1  0
  5  6  1  0
  6  7  1  0
  7  8  1  0
  5  9  1  0
  9  3  1  0
  8  5  1  0
  1 10  1  0
  2 11  1  0
  2 12  1  0
  3 13  1  0
  4 14  1  0
  4 15  1  0
  6 16  1  0
  6 17  1  0
  7 18  1  0
  7 19  1  0
  8 20  1  0
  8 21  1  0
  9 22  1  0
  9 23  1  0
M  END
