
     RDKit          3D

 19 21  0  0  0  0  0  0  0  0999 V2000
    2.4876    0.1455    1.2083 O   0  0  0  0  0  0  0  0  0  0  0  0
    1.9113   -0.7056    0.2693 C   0  0  0  0  0  0  0  0  0  0  0  0
    0.4433   -0.4396    0.1044 C   0  0  0  0  0  0  0  0  0  0  0  0
   -0.3398   -1.2546   -0.8591 C   0  0  0  0  0  0  0  0  0  0  0  0
   -1.3655   -0.5584   -1.3320 C   0  0  0  0  0  0  0  0  0  0  0  0
   -1.3438    0.8017   -0.7042 C   0  0  0  0  0  0  0  0  0  0  0  0
   -1.7369    0.7258    0.7623 C   0  0  0  0  0  0  0  0  0  0  0  0
   -0.3250    0.3433    1.0831 C   0  0  0  0  0  0  0  0  0  0  0  0
    0.0581    0.9271   -0.2488 C   0  0  0  0  0  0  0  0  0  0  0  0
    3.2946   -0.3287    1.5763 H   0  0  0  0  0  0  0  0  0  0  0  0
    2.1300   -1.7438    0.5479 H   0  0  0  0  0  0  0  0  0  0  0  0
    2.4766   -0.5186   -0.6895 H   0  0  0  0  0  0  0  0  0  0  0  0
   -0.1526   -2.2919   -1.1800 H   0  0  0  0  0  0  0  0  0  0  0  0
   -2.1008   -0.9010   -2.0493 H   0  0  0  0  0  0  0  0  0  0  0  0
   -1.7823    1.6064   -1.2828 H   0  0  0  0  0  0  0  0  0  0  0  0
   -2.4311   -0.0951    1.0062 H   0  0  0  0  0  0  0  0  0  0  0  0
   -2.0848    1.7073    1.1108 H   0  0  0  0  0  0  0  0  0  0  0  0
    0.1713    0.7997    1.9718 H   0  0  0  0  0  0  0  0  0  0  0  0
    0.6899    1.7805   -0.3624 H   0  0  0  0  0  0  0  0  0  0  0  0
  1  2  1  0
  2  3  1  0
  3  4  1  0
  4  5  2  0
  5  6  1  0
  6  7  1  0
  7  8  1  0
  8  9  1  0
  8  3  1  0
  9  3  1  0
  9  6  1  0
  1 10  1  0
  2 11  1  0
  2 12  1  0
  4 13  1  0
  5 14  1  0
  6 15  1  0
  7 16  1  0
  7 17  1  0
  8 18  1  0
  9 19  1  0
M  END
