
     RDKit          3D

 19 20  0  0  0  0  0  0  0  0999 V2000
    2.5865   -0.3102   -1.1556 O   0  0  0  0  0  0  0  0  0  0  0  0
    1.8697   -0.4945    0.0256 C   0  0  0  0  0  0  0  0  0  0  0  0
    0.4142   -0.6373   -0.1885 C   0  0  0  0  0  0  0  0  0  0  0  0
   -0.3559    0.4504   -0.8327 C   0  0  0  0  0  0  0  0  0  0  0  0
   -1.5747   -0.2010   -0.2008 C   0  0  0  0  0  0  0  0  0  0  0  0
   -1.8288   -1.4804   -0.6843 O   0  0  0  0  0  0  0  0  0  0  0  0
   -0.5286   -0.2014    0.8922 C   0  0  0  0  0  0  0  0  0  0  0  0
   -0.2664    1.1974    0.4572 C   0  0  0  0  0  0  0  0  0  0  0  0
   -1.3248    2.0893    0.5850 O   0  0  0  0  0  0  0  0  0  0  0  0
    3.2661    0.4033   -0.9592 H   0  0  0  0  0  0  0  0  0  0  0  0
    2.2435   -1.4875    0.4234 H   0  0  0  0  0  0  0  0  0  0  0  0
    2.0834    0.2232    0.8141 H   0  0  0  0  0  0  0  0  0  0  0  0
    0.0799   -1.6357   -0.6026 H   0  0  0  0  0  0  0  0  0  0  0  0
   -0.3066    0.8056   -1.7641 H   0  0  0  0  0  0  0  0  0  0  0  0
   -2.4337    0.4433   -0.0393 H   0  0  0  0  0  0  0  0  0  0  0  0
   -2.0541   -2.1136    0.0696 H   0  0  0  0  0  0  0  0  0  0  0  0
   -0.6299   -0.5728    1.8114 H   0  0  0  0  0  0  0  0  0  0  0  0
    0.6685    1.6468    0.7629 H   0  0  0  0  0  0  0  0  0  0  0  0
   -1.9084    1.8750    1.3619 H   0  0  0  0  0  0  0  0  0  0  0  0
  1  2  1  0
  2  3  1  0
  3  4  1  0
  4  5  1  0
  5  6  1  0
  5  7  1  0
  7  8  1  0
  8  9  1  0
  7  3  1  0
  8  4  1  0
  1 10  1  0
  2 11  1  0
  2 12  1  0
  3 13  1  0
  4 14  1  0
  5 15  1  0
  6 16  1  0
  7 17  1  0
  8 18  1  0
  9 19  1  0
M  END
