
     RDKit          3D

 19 20  0  0  0  0  0  0  0  0999 V2000
    2.7939   -0.3432    0.4741 O   0  0  0  0  0  0  0  0  0  0  0  0
    2.0046   -0.0939   -0.6355 C   0  0  0  0  0  0  0  0  0  0  0  0
    0.5825   -0.5267   -0.3635 C   0  0  0  0  0  0  0  0  0  0  0  0
   -0.1984   -0.2825   -1.4555 O   0  0  0  0  0  0  0  0  0  0  0  0
   -1.4680    0.0250   -1.0553 C   0  0  0  0  0  0  0  0  0  0  0  0
   -2.1668   -0.6258    0.0579 C   0  0  0  0  0  0  0  0  0  0  0  0
   -1.3638    0.5955    0.3329 C   0  0  0  0  0  0  0  0  0  0  0  0
    0.0687    0.3050    0.7829 C   0  0  0  0  0  0  0  0  0  0  0  0
    0.7549    1.4776    0.9529 O   0  0  0  0  0  0  0  0  0  0  0  0
    2.7452   -1.3037    0.7513 H   0  0  0  0  0  0  0  0  0  0  0  0
    2.3771   -0.5693   -1.5619 H   0  0  0  0  0  0  0  0  0  0  0  0
    1.9811    1.0155   -0.7803 H   0  0  0  0  0  0  0  0  0  0  0  0
    0.5912   -1.6044   -0.1058 H   0  0  0  0  0  0  0  0  0  0  0  0
   -2.0901    0.6112   -1.7766 H   0  0  0  0  0  0  0  0  0  0  0  0
   -3.2550   -0.4993    0.1220 H   0  0  0  0  0  0  0  0  0  0  0  0
   -1.8098   -1.5941    0.4591 H   0  0  0  0  0  0  0  0  0  0  0  0
   -1.8047    1.5703    0.5279 H   0  0  0  0  0  0  0  0  0  0  0  0
    0.0677   -0.2405    1.7491 H   0  0  0  0  0  0  0  0  0  0  0  0
    0.1897    2.0835    1.5242 H   0  0  0  0  0  0  0  0  0  0  0  0
  1  2  1  0
  2  3  1  0
  3  4  1  0
  4  5  1  0
  5  6  1  0
  6  7  1  0
  7  8  1  0
  8  9  1  0
  8  3  1  0
  7  5  1  0
  1 10  1  0
  2 11  1  0
  2 12  1  0
  3 13  1  0
  5 14  1  0
  6 15  1  0
  6 16  1  0
  7 17  1  0
  8 18  1  0
  9 19  1  0
M  END
