
     RDKit          3D

 17 17  0  0  0  0  0  0  0  0999 V2000
    2.5433    0.1494    0.8912 O   0  0  0  0  0  0  0  0  0  0  0  0
    1.9260   -0.1528   -0.3262 C   0  0  0  0  0  0  0  0  0  0  0  0
    0.4747    0.2459   -0.1882 C   0  0  0  0  0  0  0  0  0  0  0  0
   -0.2745   -0.6240    0.7925 C   0  0  0  0  0  0  0  0  0  0  0  0
   -1.7227   -0.2883    0.4087 C   0  0  0  0  0  0  0  0  0  0  0  0
   -1.5411    0.3378   -0.9495 C   0  0  0  0  0  0  0  0  0  0  0  0
   -0.2395   -0.0196   -1.3691 O   0  0  0  0  0  0  0  0  0  0  0  0
    2.6254    1.1546    0.9108 H   0  0  0  0  0  0  0  0  0  0  0  0
    2.3650    0.5070   -1.1000 H   0  0  0  0  0  0  0  0  0  0  0  0
    1.9963   -1.2173   -0.5526 H   0  0  0  0  0  0  0  0  0  0  0  0
    0.3420    1.3029    0.0577 H   0  0  0  0  0  0  0  0  0  0  0  0
   -0.0703   -0.3899    1.8383 H   0  0  0  0  0  0  0  0  0  0  0  0
   -0.1390   -1.6965    0.5382 H   0  0  0  0  0  0  0  0  0  0  0  0
   -2.1606    0.4253    1.1488 H   0  0  0  0  0  0  0  0  0  0  0  0
   -2.3437   -1.1827    0.4151 H   0  0  0  0  0  0  0  0  0  0  0  0
   -1.5036    1.4503   -0.8339 H   0  0  0  0  0  0  0  0  0  0  0  0
   -2.2777   -0.0020   -1.6818 H   0  0  0  0  0  0  0  0  0  0  0  0
  1  2  1  0
  2  3  1  0
  3  4  1  0
  4  5  1  0
  5  6  1  0
  6  7  1  0
  7  3  1  0
  1  8  1  0
  2  9  1  0
  2 10  1  0
  3 11  1  0
  4 12  1  0
  4 13  1  0
  5 14  1  0
  5 15  1  0
  6 16  1  0
  6 17  1  0
M  END
