
     RDKit          3D

 19 20  0  0  0  0  0  0  0  0999 V2000
   -2.4901    1.2862    0.0445 O   0  0  0  0  0  0  0  0  0  0  0  0
   -1.9547    0.0333   -0.0524 C   0  0  0  0  0  0  0  0  0  0  0  0
   -0.5183   -0.0341    0.1684 C   0  0  0  0  0  0  0  0  0  0  0  0
    0.4247    0.5434   -0.8458 C   0  0  0  0  0  0  0  0  0  0  0  0
    1.7282    0.0318   -0.1921 C   0  0  0  0  0  0  0  0  0  0  0  0
    2.6404    1.0234   -0.0116 O   0  0  0  0  0  0  0  0  0  0  0  0
    1.0963   -0.4861    1.0714 C   0  0  0  0  0  0  0  0  0  0  0  0
    0.0390   -1.4249    0.4867 C   0  0  0  0  0  0  0  0  0  0  0  0
    0.0231    0.3737    1.3638 O   0  0  0  0  0  0  0  0  0  0  0  0
   -3.0346    1.5563   -0.7395 H   0  0  0  0  0  0  0  0  0  0  0  0
   -2.4604   -0.6397    0.6942 H   0  0  0  0  0  0  0  0  0  0  0  0
   -2.2013   -0.4035   -1.0400 H   0  0  0  0  0  0  0  0  0  0  0  0
    0.3050    0.1583   -1.8541 H   0  0  0  0  0  0  0  0  0  0  0  0
    0.4061    1.6476   -0.7605 H   0  0  0  0  0  0  0  0  0  0  0  0
    2.0424   -0.8217   -0.7929 H   0  0  0  0  0  0  0  0  0  0  0  0
    2.3795    1.9190   -0.2841 H   0  0  0  0  0  0  0  0  0  0  0  0
    1.6978   -0.8451    1.8677 H   0  0  0  0  0  0  0  0  0  0  0  0
   -0.5526   -1.9412    1.2392 H   0  0  0  0  0  0  0  0  0  0  0  0
    0.4294   -1.9767   -0.3630 H   0  0  0  0  0  0  0  0  0  0  0  0
  1  2  1  0
  2  3  1  0
  3  4  1  0
  4  5  1  0
  5  6  1  0
  5  7  1  0
  7  8  1  0
  7  9  1  0
  8  3  1  0
  9  3  1  0
  1 10  1  0
  2 11  1  0
  2 12  1  0
  4 13  1  0
  4 14  1  0
  5 15  1  0
  6 16  1  0
  7 17  1  0
  8 18  1  0
  8 19  1  0
M  END
