
     RDKit          3D

 17 18  0  0  0  0  0  0  0  0999 V2000
    2.1817   -0.9479   -1.0178 O   0  0  0  0  0  0  0  0  0  0  0  0
    1.7982    0.1808   -0.2951 C   0  0  0  0  0  0  0  0  0  0  0  0
    0.3648    0.0936    0.0146 C   0  0  0  0  0  0  0  0  0  0  0  0
   -0.2316    1.2940    0.6546 C   0  0  0  0  0  0  0  0  0  0  0  0
   -1.5434    1.1913    0.3891 C   0  0  0  0  0  0  0  0  0  0  0  0
   -1.6760   -0.0427   -0.4229 C   0  0  0  0  0  0  0  0  0  0  0  0
   -1.3716   -1.2516    0.4138 C   0  0  0  0  0  0  0  0  0  0  0  0
   -0.0712   -1.1638    0.6813 C   0  0  0  0  0  0  0  0  0  0  0  0
   -0.4517    0.0254   -1.1448 O   0  0  0  0  0  0  0  0  0  0  0  0
    2.8022   -0.7277   -1.7444 H   0  0  0  0  0  0  0  0  0  0  0  0
    2.4606    0.3625    0.5625 H   0  0  0  0  0  0  0  0  0  0  0  0
    1.9374    1.0789   -0.9672 H   0  0  0  0  0  0  0  0  0  0  0  0
    0.2329    2.0965    1.2160 H   0  0  0  0  0  0  0  0  0  0  0  0
   -2.3165    1.8572    0.6987 H   0  0  0  0  0  0  0  0  0  0  0  0
   -2.5432   -0.1216   -1.0411 H   0  0  0  0  0  0  0  0  0  0  0  0
   -2.0465   -2.0317    0.7375 H   0  0  0  0  0  0  0  0  0  0  0  0
    0.4738   -1.8931    1.2652 H   0  0  0  0  0  0  0  0  0  0  0  0
  1  2  1  0
  2  3  1  0
  3  4  1  0
  4  5  2  0
  5  6  1  0
  6  7  1  0
  7  8  2  0
  6  9  1  0
  8  3  1  0
  9  3  1  0
  1 10  1  0
  2 11  1  0
  2 12  1  0
  4 13  1  0
  5 14  1  0
  6 15  1  0
  7 16  1  0
  8 17  1  0
M  END
