
     RDKit          3D

 15 15  0  0  0  0  0  0  0  0999 V2000
   -2.3052   -0.7539   -0.7846 O   0  0  0  0  0  0  0  0  0  0  0  0
   -1.5554    0.0378    0.0559 C   0  0  0  0  0  0  0  0  0  0  0  0
   -0.1252   -0.4196    0.0817 C   0  0  0  0  0  0  0  0  0  0  0  0
    0.6694    0.4578    0.9981 C   0  0  0  0  0  0  0  0  0  0  0  0
    1.5935    1.0366    0.1129 O   0  0  0  0  0  0  0  0  0  0  0  0
    1.8190    0.0035   -0.7723 C   0  0  0  0  0  0  0  0  0  0  0  0
    0.5079   -0.3908   -1.1242 O   0  0  0  0  0  0  0  0  0  0  0  0
   -2.9455   -0.1625   -1.2553 H   0  0  0  0  0  0  0  0  0  0  0  0
   -1.9583   -0.0945    1.0868 H   0  0  0  0  0  0  0  0  0  0  0  0
   -1.6386    1.1250   -0.1935 H   0  0  0  0  0  0  0  0  0  0  0  0
   -0.1187   -1.4500    0.5055 H   0  0  0  0  0  0  0  0  0  0  0  0
    1.2432   -0.1429    1.7437 H   0  0  0  0  0  0  0  0  0  0  0  0
    0.0819    1.2613    1.4653 H   0  0  0  0  0  0  0  0  0  0  0  0
    2.3383   -0.8506   -0.2678 H   0  0  0  0  0  0  0  0  0  0  0  0
    2.3937    0.3427   -1.6521 H   0  0  0  0  0  0  0  0  0  0  0  0
  1  2  1  0
  2  3  1  0
  3  4  1  0
  4  5  1  0
  5  6  1  0
  6  7  1  0
  7  3  1  0
  1  8  1  0
  2  9  1  0
  2 10  1  0
  3 11  1  0
  4 12  1  0
  4 13  1  0
  6 14  1  0
  6 15  1  0
M  END
