
     RDKit          3D

 19 20  0  0  0  0  0  0  0  0999 V2000
    2.0280   -0.2638    0.5498 O   0  0  0  0  0  0  0  0  0  0  0  0
    1.6912    0.4638   -0.5796 C   0  0  0  0  0  0  0  0  0  0  0  0
    0.2070    0.3385   -0.8143 C   0  0  0  0  0  0  0  0  0  0  0  0
   -0.2577   -1.0952   -1.0312 C   0  0  0  0  0  0  0  0  0  0  0  0
   -1.1619   -0.9840    0.1940 C   0  0  0  0  0  0  0  0  0  0  0  0
   -0.8673   -1.9333    1.1409 O   0  0  0  0  0  0  0  0  0  0  0  0
   -0.6636    0.3847    0.3935 C   0  0  0  0  0  0  0  0  0  0  0  0
   -1.3627    1.5325    0.8462 C   0  0  0  0  0  0  0  0  0  0  0  0
   -0.3068    0.9319    1.5710 O   0  0  0  0  0  0  0  0  0  0  0  0
    2.9963   -0.3597    0.5854 H   0  0  0  0  0  0  0  0  0  0  0  0
    2.2392    0.1225   -1.4818 H   0  0  0  0  0  0  0  0  0  0  0  0
    1.9162    1.5273   -0.3921 H   0  0  0  0  0  0  0  0  0  0  0  0
   -0.1351    1.0613   -1.5666 H   0  0  0  0  0  0  0  0  0  0  0  0
   -0.8787   -1.1918   -1.9342 H   0  0  0  0  0  0  0  0  0  0  0  0
    0.5253   -1.8571   -0.8928 H   0  0  0  0  0  0  0  0  0  0  0  0
   -2.2497   -0.9955   -0.0417 H   0  0  0  0  0  0  0  0  0  0  0  0
   -0.2071   -1.6678    1.8077 H   0  0  0  0  0  0  0  0  0  0  0  0
   -1.1355    2.5244    0.3626 H   0  0  0  0  0  0  0  0  0  0  0  0
   -2.3772    1.4616    1.2831 H   0  0  0  0  0  0  0  0  0  0  0  0
  1  2  1  0
  2  3  1  0
  3  4  1  0
  4  5  1  0
  5  6  1  0
  5  7  1  0
  7  8  1  0
  8  9  1  0
  7  3  1  0
  9  7  1  0
  1 10  1  0
  2 11  1  0
  2 12  1  0
  3 13  1  0
  4 14  1  0
  4 15  1  0
  5 16  1  0
  6 17  1  0
  8 18  1  0
  8 19  1  0
M  END
