
     RDKit          3D

 19 20  0  0  0  0  0  0  0  0999 V2000
   -2.5489    0.9611   -0.2367 O   0  0  0  0  0  0  0  0  0  0  0  0
   -1.8007   -0.2022   -0.5216 C   0  0  0  0  0  0  0  0  0  0  0  0
   -0.6036   -0.1769    0.3615 C   0  0  0  0  0  0  0  0  0  0  0  0
    0.3604   -1.3376    0.2353 C   0  0  0  0  0  0  0  0  0  0  0  0
    0.9199   -0.6066   -0.9862 C   0  0  0  0  0  0  0  0  0  0  0  0
    0.5967    0.6018   -0.1248 C   0  0  0  0  0  0  0  0  0  0  0  0
    0.4831    1.7986   -0.6432 O   0  0  0  0  0  0  0  0  0  0  0  0
    1.5453    0.3377    1.0435 C   0  0  0  0  0  0  0  0  0  0  0  0
    1.2959   -1.0504    1.2018 O   0  0  0  0  0  0  0  0  0  0  0  0
   -2.8734    0.9511    0.6976 H   0  0  0  0  0  0  0  0  0  0  0  0
   -1.5669   -0.2084   -1.5947 H   0  0  0  0  0  0  0  0  0  0  0  0
   -2.4429   -1.0605   -0.2365 H   0  0  0  0  0  0  0  0  0  0  0  0
   -0.8367   -0.0067    1.4313 H   0  0  0  0  0  0  0  0  0  0  0  0
   -0.0136   -2.3143    0.1064 H   0  0  0  0  0  0  0  0  0  0  0  0
    0.3740   -0.7227   -1.9122 H   0  0  0  0  0  0  0  0  0  0  0  0
    2.0156   -0.7422   -1.0180 H   0  0  0  0  0  0  0  0  0  0  0  0
    1.2848    2.3592   -0.4826 H   0  0  0  0  0  0  0  0  0  0  0  0
    1.2182    0.9038    1.9282 H   0  0  0  0  0  0  0  0  0  0  0  0
    2.5929    0.5150    0.7510 H   0  0  0  0  0  0  0  0  0  0  0  0
  1  2  1  0
  2  3  1  0
  3  4  1  0
  4  5  1  0
  5  6  1  0
  6  7  1  0
  6  8  1  0
  8  9  1  0
  6  3  1  0
  9  4  1  0
  1 10  1  0
  2 11  1  0
  2 12  1  0
  3 13  1  0
  4 14  1  0
  5 15  1  0
  5 16  1  0
  7 17  1  0
  8 18  1  0
  8 19  1  0
M  END
