
     RDKit          3D

 17 19  0  0  0  0  0  0  0  0999 V2000
    2.4986   -0.3621    0.4075 O   0  0  0  0  0  0  0  0  0  0  0  0
    1.7938    0.0809   -0.7112 C   0  0  0  0  0  0  0  0  0  0  0  0
    0.3598   -0.1608   -0.5014 C   0  0  0  0  0  0  0  0  0  0  0  0
   -0.6152    0.1645   -1.4235 O   0  0  0  0  0  0  0  0  0  0  0  0
   -1.7752   -0.1179   -0.7092 C   0  0  0  0  0  0  0  0  0  0  0  0
   -1.5276    0.7372    0.5411 C   0  0  0  0  0  0  0  0  0  0  0  0
   -0.1686    0.1455    0.8715 C   0  0  0  0  0  0  0  0  0  0  0  0
   -0.2275   -1.2017    0.3291 C   0  0  0  0  0  0  0  0  0  0  0  0
   -1.5202   -1.3749   -0.2208 O   0  0  0  0  0  0  0  0  0  0  0  0
    2.5949    0.3564    1.0900 H   0  0  0  0  0  0  0  0  0  0  0  0
    1.9607    1.1983   -0.7411 H   0  0  0  0  0  0  0  0  0  0  0  0
    2.2297   -0.3495   -1.6254 H   0  0  0  0  0  0  0  0  0  0  0  0
   -2.6988    0.0616   -1.1967 H   0  0  0  0  0  0  0  0  0  0  0  0
   -1.4066    1.7993    0.2457 H   0  0  0  0  0  0  0  0  0  0  0  0
   -2.2755    0.5693    1.3141 H   0  0  0  0  0  0  0  0  0  0  0  0
    0.4380    0.5140    1.6720 H   0  0  0  0  0  0  0  0  0  0  0  0
    0.3398   -2.0601    0.6584 H   0  0  0  0  0  0  0  0  0  0  0  0
  1  2  1  0
  2  3  1  0
  3  4  1  0
  4  5  1  0
  5  6  1  0
  6  7  1  0
  7  8  1  0
  8  9  1  0
  7  3  1  0
  8  3  1  0
  9  5  1  0
  1 10  1  0
  2 11  1  0
  2 12  1  0
  5 13  1  0
  6 14  1  0
  6 15  1  0
  7 16  1  0
  8 17  1  0
M  END
