
     RDKit          3D

 21 22  0  0  0  0  0  0  0  0999 V2000
    3.1281    0.9219   -0.6291 O   0  0  0  0  0  0  0  0  0  0  0  0
    2.3312   -0.1142   -0.1427 C   0  0  0  0  0  0  0  0  0  0  0  0
    1.0296    0.4651    0.3374 C   0  0  0  0  0  0  0  0  0  0  0  0
    0.0502   -0.5245    0.8964 C   0  0  0  0  0  0  0  0  0  0  0  0
   -1.0866    0.0591    0.0991 C   0  0  0  0  0  0  0  0  0  0  0  0
   -1.9366   -0.9034   -0.6799 C   0  0  0  0  0  0  0  0  0  0  0  0
   -2.5442   -1.8361    0.1220 O   0  0  0  0  0  0  0  0  0  0  0  0
   -1.1929    1.4777   -0.2172 C   0  0  0  0  0  0  0  0  0  0  0  0
    0.0268    0.8026   -0.7143 C   0  0  0  0  0  0  0  0  0  0  0  0
    4.0490    0.5579   -0.6786 H   0  0  0  0  0  0  0  0  0  0  0  0
    2.8941   -0.6271    0.6595 H   0  0  0  0  0  0  0  0  0  0  0  0
    2.1399   -0.7879   -1.0156 H   0  0  0  0  0  0  0  0  0  0  0  0
    1.1805    1.2953    1.0586 H   0  0  0  0  0  0  0  0  0  0  0  0
    0.3025   -1.5475    0.5071 H   0  0  0  0  0  0  0  0  0  0  0  0
   -0.0847   -0.5163    1.9952 H   0  0  0  0  0  0  0  0  0  0  0  0
   -2.7374   -0.3155   -1.1731 H   0  0  0  0  0  0  0  0  0  0  0  0
   -1.3221   -1.3660   -1.4869 H   0  0  0  0  0  0  0  0  0  0  0  0
   -3.4495   -1.5651    0.4086 H   0  0  0  0  0  0  0  0  0  0  0  0
   -0.9837    2.2807    0.5488 H   0  0  0  0  0  0  0  0  0  0  0  0
   -1.9241    1.7893   -0.9558 H   0  0  0  0  0  0  0  0  0  0  0  0
    0.1298    0.4540   -1.7498 H   0  0  0  0  0  0  0  0  0  0  0  0
  1  2  1  0
  2  3  1  0
  3  4  1  0
  4  5  1  0
  5  6  1  0
  6  7  1  0
  5  8  1  0
  8  9  1  0
  9  3  1  0
  9  5  1  0
  1 10  1  0
  2 11  1  0
  2 12  1  0
  3 13  1  0
  4 14  1  0
  4 15  1  0
  6 16  1  0
  6 17  1  0
  7 18  1  0
  8 19  1  0
  8 20  1  0
  9 21  1  0
M  END
