
     RDKit          3D

 19 20  0  0  0  0  0  0  0  0999 V2000
    2.4692    1.0597   -0.8697 O   0  0  0  0  0  0  0  0  0  0  0  0
    1.8627    0.0148   -0.1725 C   0  0  0  0  0  0  0  0  0  0  0  0
    0.5234   -0.3484   -0.7625 C   0  0  0  0  0  0  0  0  0  0  0  0
   -0.5611    0.7302   -0.8077 C   0  0  0  0  0  0  0  0  0  0  0  0
   -0.1318    1.9611   -0.3350 O   0  0  0  0  0  0  0  0  0  0  0  0
   -0.6274   -0.3885    0.0939 C   0  0  0  0  0  0  0  0  0  0  0  0
   -1.6762   -1.4341    0.1278 C   0  0  0  0  0  0  0  0  0  0  0  0
   -1.4699   -1.5287    1.5110 O   0  0  0  0  0  0  0  0  0  0  0  0
   -0.6653   -0.3638    1.5586 C   0  0  0  0  0  0  0  0  0  0  0  0
    2.2283    1.8988   -0.3808 H   0  0  0  0  0  0  0  0  0  0  0  0
    1.7272    0.3113    0.8957 H   0  0  0  0  0  0  0  0  0  0  0  0
    2.4840   -0.9032   -0.1492 H   0  0  0  0  0  0  0  0  0  0  0  0
    0.5277   -1.0044   -1.6730 H   0  0  0  0  0  0  0  0  0  0  0  0
   -1.1743    0.8101   -1.7346 H   0  0  0  0  0  0  0  0  0  0  0  0
   -0.4913    2.7215   -0.8470 H   0  0  0  0  0  0  0  0  0  0  0  0
   -1.3005   -2.3894   -0.3373 H   0  0  0  0  0  0  0  0  0  0  0  0
   -2.6985   -1.1583   -0.1785 H   0  0  0  0  0  0  0  0  0  0  0  0
   -1.2931    0.4869    1.9403 H   0  0  0  0  0  0  0  0  0  0  0  0
    0.2669   -0.4756    2.1206 H   0  0  0  0  0  0  0  0  0  0  0  0
  1  2  1  0
  2  3  1  0
  3  4  1  0
  4  5  1  0
  4  6  1  0
  6  7  1  0
  7  8  1  0
  8  9  1  0
  6  3  1  0
  9  6  1  0
  1 10  1  0
  2 11  1  0
  2 12  1  0
  3 13  1  0
  4 14  1  0
  5 15  1  0
  7 16  1  0
  7 17  1  0
  9 18  1  0
  9 19  1  0
M  END
