
     RDKit          3D

 17 18  0  0  0  0  0  0  0  0999 V2000
    2.3583   -0.6779   -0.2330 O   0  0  0  0  0  0  0  0  0  0  0  0
    1.3918    0.3317   -0.4870 C   0  0  0  0  0  0  0  0  0  0  0  0
    0.2570    0.1162    0.3597 C   0  0  0  0  0  0  0  0  0  0  0  0
   -0.3325   -1.2376    0.0700 C   0  0  0  0  0  0  0  0  0  0  0  0
   -1.4660   -0.4823   -0.6528 C   0  0  0  0  0  0  0  0  0  0  0  0
   -1.1622    0.3658    0.5495 C   0  0  0  0  0  0  0  0  0  0  0  0
   -0.3321    1.4283    0.6085 C   0  0  0  0  0  0  0  0  0  0  0  0
    2.4744   -0.7286    0.7526 H   0  0  0  0  0  0  0  0  0  0  0  0
    1.9734    1.2660   -0.4333 H   0  0  0  0  0  0  0  0  0  0  0  0
    1.1143    0.2157   -1.5669 H   0  0  0  0  0  0  0  0  0  0  0  0
   -0.7852   -1.7574    0.9378 H   0  0  0  0  0  0  0  0  0  0  0  0
    0.1263   -1.8967   -0.6446 H   0  0  0  0  0  0  0  0  0  0  0  0
   -2.4314   -0.9830   -0.6058 H   0  0  0  0  0  0  0  0  0  0  0  0
   -1.1602    0.0054   -1.5728 H   0  0  0  0  0  0  0  0  0  0  0  0
   -1.5700   -0.1210    1.4895 H   0  0  0  0  0  0  0  0  0  0  0  0
   -0.0259    1.9023    1.5900 H   0  0  0  0  0  0  0  0  0  0  0  0
   -0.4299    2.2532   -0.1615 H   0  0  0  0  0  0  0  0  0  0  0  0
  1  2  1  0
  2  3  1  0
  3  4  1  0
  4  5  1  0
  5  6  1  0
  6  7  1  0
  6  3  1  0
  7  3  1  0
  1  8  1  0
  2  9  1  0
  2 10  1  0
  4 11  1  0
  4 12  1  0
  5 13  1  0
  5 14  1  0
  6 15  1  0
  7 16  1  0
  7 17  1  0
M  END
