
     RDKit          3D

 23 24  0  0  0  0  0  0  0  0999 V2000
   -3.9292   -0.0033    0.5759 O   0  0  0  0  0  0  0  0  0  0  0  0
   -3.0347    0.4251   -0.4055 C   0  0  0  0  0  0  0  0  0  0  0  0
   -1.7335    0.7605    0.3210 C   0  0  0  0  0  0  0  0  0  0  0  0
   -1.1491   -0.4406    1.0594 C   0  0  0  0  0  0  0  0  0  0  0  0
   -0.5056    0.1360   -0.2076 C   0  0  0  0  0  0  0  0  0  0  0  0
    0.8504    0.7202    0.0036 C   0  0  0  0  0  0  0  0  0  0  0  0
    1.8649   -0.1773   -0.6704 C   0  0  0  0  0  0  0  0  0  0  0  0
    3.2972    0.1292   -0.6409 C   0  0  0  0  0  0  0  0  0  0  0  0
    2.8007   -0.9998    0.2154 C   0  0  0  0  0  0  0  0  0  0  0  0
   -4.3005   -0.8937    0.3528 H   0  0  0  0  0  0  0  0  0  0  0  0
   -2.9029   -0.3973   -1.1305 H   0  0  0  0  0  0  0  0  0  0  0  0
   -3.4844    1.3224   -0.8697 H   0  0  0  0  0  0  0  0  0  0  0  0
   -1.7432    1.7290    0.8237 H   0  0  0  0  0  0  0  0  0  0  0  0
   -1.6073   -1.4338    0.9113 H   0  0  0  0  0  0  0  0  0  0  0  0
   -0.6750   -0.2106    2.0265 H   0  0  0  0  0  0  0  0  0  0  0  0
   -0.6069   -0.4579   -1.1511 H   0  0  0  0  0  0  0  0  0  0  0  0
    1.1258    0.7356    1.0908 H   0  0  0  0  0  0  0  0  0  0  0  0
    0.9358    1.7747   -0.3269 H   0  0  0  0  0  0  0  0  0  0  0  0
    1.5200   -0.7552   -1.5778 H   0  0  0  0  0  0  0  0  0  0  0  0
    3.9429   -0.1585   -1.4939 H   0  0  0  0  0  0  0  0  0  0  0  0
    3.6026    1.0745   -0.1525 H   0  0  0  0  0  0  0  0  0  0  0  0
    3.0329   -2.0327   -0.0653 H   0  0  0  0  0  0  0  0  0  0  0  0
    2.6992   -0.8464    1.3118 H   0  0  0  0  0  0  0  0  0  0  0  0
  1  2  1  0
  2  3  1  0
  3  4  1  0
  4  5  1  0
  5  6  1  0
  6  7  1  0
  7  8  1  0
  8  9  1  0
  5  3  1  0
  9  7  1  0
  1 10  1  0
  2 11  1  0
  2 12  1  0
  3 13  1  0
  4 14  1  0
  4 15  1  0
  5 16  1  0
  6 17  1  0
  6 18  1  0
  7 19  1  0
  8 20  1  0
  8 21  1  0
  9 22  1  0
  9 23  1  0
M  END
