
     RDKit          3D

 17 18  0  0  0  0  0  0  0  0999 V2000
   -2.4225   -0.3801    0.7606 O   0  0  0  0  0  0  0  0  0  0  0  0
   -1.6789   -0.2135   -0.3878 C   0  0  0  0  0  0  0  0  0  0  0  0
   -0.2518    0.0533   -0.1600 C   0  0  0  0  0  0  0  0  0  0  0  0
    0.5187   -1.0220    0.4695 C   0  0  0  0  0  0  0  0  0  0  0  0
    1.7820   -0.8290    0.1013 C   0  0  0  0  0  0  0  0  0  0  0  0
    1.7317    0.4417   -0.7157 C   0  0  0  0  0  0  0  0  0  0  0  0
    1.4554    1.4750    0.1559 O   0  0  0  0  0  0  0  0  0  0  0  0
    0.0923    1.3421    0.5156 C   0  0  0  0  0  0  0  0  0  0  0  0
    0.4856    0.2212   -1.3611 O   0  0  0  0  0  0  0  0  0  0  0  0
   -2.7358   -1.2976    0.9095 H   0  0  0  0  0  0  0  0  0  0  0  0
   -2.1730    0.5243   -1.0513 H   0  0  0  0  0  0  0  0  0  0  0  0
   -1.7534   -1.1901   -0.9501 H   0  0  0  0  0  0  0  0  0  0  0  0
    0.1778   -1.8237    1.1054 H   0  0  0  0  0  0  0  0  0  0  0  0
    2.6690   -1.4214    0.3164 H   0  0  0  0  0  0  0  0  0  0  0  0
    2.5522    0.5747   -1.3834 H   0  0  0  0  0  0  0  0  0  0  0  0
   -0.4169    2.2226    0.0576 H   0  0  0  0  0  0  0  0  0  0  0  0
   -0.0323    1.3225    1.6174 H   0  0  0  0  0  0  0  0  0  0  0  0
  1  2  1  0
  2  3  1  0
  3  4  1  0
  4  5  2  0
  5  6  1  0
  6  7  1  0
  7  8  1  0
  6  9  1  0
  8  3  1  0
  9  3  1  0
  1 10  1  0
  2 11  1  0
  2 12  1  0
  4 13  1  0
  5 14  1  0
  6 15  1  0
  8 16  1  0
  8 17  1  0
M  END
