
     RDKit          3D

 19 21  0  0  0  0  0  0  0  0999 V2000
    1.6858    1.3645   -0.5332 O   0  0  0  0  0  0  0  0  0  0  0  0
    1.9141    0.0167   -0.6004 C   0  0  0  0  0  0  0  0  0  0  0  0
    0.8363   -0.8618   -0.0574 C   0  0  0  0  0  0  0  0  0  0  0  0
    0.4509   -0.7600    1.2786 C   0  0  0  0  0  0  0  0  0  0  0  0
   -0.5189   -0.5182    0.2758 C   0  0  0  0  0  0  0  0  0  0  0  0
   -1.3940    0.5085    0.7692 C   0  0  0  0  0  0  0  0  0  0  0  0
   -2.4081    0.1023   -0.2650 C   0  0  0  0  0  0  0  0  0  0  0  0
   -1.0207    0.1720   -0.8578 C   0  0  0  0  0  0  0  0  0  0  0  0
   -0.9077    1.3865   -0.1833 O   0  0  0  0  0  0  0  0  0  0  0  0
    2.5201    1.8531   -0.6399 H   0  0  0  0  0  0  0  0  0  0  0  0
    2.2139   -0.2703   -1.6478 H   0  0  0  0  0  0  0  0  0  0  0  0
    2.8395   -0.1879    0.0157 H   0  0  0  0  0  0  0  0  0  0  0  0
    0.9248   -1.9024   -0.5098 H   0  0  0  0  0  0  0  0  0  0  0  0
    0.9631    0.0032    1.9367 H   0  0  0  0  0  0  0  0  0  0  0  0
    0.2924   -1.7013    1.8894 H   0  0  0  0  0  0  0  0  0  0  0  0
   -1.6406    0.7769    1.7298 H   0  0  0  0  0  0  0  0  0  0  0  0
   -3.1002    0.8641   -0.6162 H   0  0  0  0  0  0  0  0  0  0  0  0
   -2.8050   -0.9237   -0.1174 H   0  0  0  0  0  0  0  0  0  0  0  0
   -0.8457    0.0780   -1.8673 H   0  0  0  0  0  0  0  0  0  0  0  0
  1  2  1  0
  2  3  1  0
  3  4  1  0
  4  5  1  0
  5  6  1  0
  6  7  1  0
  7  8  1  0
  8  9  1  0
  5  3  1  0
  9  6  1  0
  8  5  1  0
  1 10  1  0
  2 11  1  0
  2 12  1  0
  3 13  1  0
  4 14  1  0
  4 15  1  0
  6 16  1  0
  7 17  1  0
  7 18  1  0
  8 19  1  0
M  END
