
     RDKit          3D

 21 22  0  0  0  0  0  0  0  0999 V2000
    3.1696    0.4452   -0.5001 O   0  0  0  0  0  0  0  0  0  0  0  0
    1.9152    0.9967   -0.2653 C   0  0  0  0  0  0  0  0  0  0  0  0
    1.1127    0.1930    0.7302 C   0  0  0  0  0  0  0  0  0  0  0  0
    0.8131   -1.2350    0.3800 C   0  0  0  0  0  0  0  0  0  0  0  0
   -0.2330   -0.1931    0.3155 C   0  0  0  0  0  0  0  0  0  0  0  0
   -0.7824    0.3104   -0.9827 C   0  0  0  0  0  0  0  0  0  0  0  0
   -2.2279   -0.0011   -0.8901 C   0  0  0  0  0  0  0  0  0  0  0  0
   -2.5621   -0.3604    0.3410 C   0  0  0  0  0  0  0  0  0  0  0  0
   -1.3871   -0.3402    1.2464 C   0  0  0  0  0  0  0  0  0  0  0  0
    3.7060    0.3225    0.3113 H   0  0  0  0  0  0  0  0  0  0  0  0
    2.0124    2.0439    0.1335 H   0  0  0  0  0  0  0  0  0  0  0  0
    1.3813    1.0400   -1.2325 H   0  0  0  0  0  0  0  0  0  0  0  0
    1.2951    0.4668    1.7896 H   0  0  0  0  0  0  0  0  0  0  0  0
    0.8090   -1.9632    1.2240 H   0  0  0  0  0  0  0  0  0  0  0  0
    1.1699   -1.6713   -0.5582 H   0  0  0  0  0  0  0  0  0  0  0  0
   -0.6120    1.4214   -1.0243 H   0  0  0  0  0  0  0  0  0  0  0  0
   -0.2871   -0.1189   -1.8592 H   0  0  0  0  0  0  0  0  0  0  0  0
   -2.8848    0.0774   -1.7742 H   0  0  0  0  0  0  0  0  0  0  0  0
   -3.5804   -0.6396    0.6577 H   0  0  0  0  0  0  0  0  0  0  0  0
   -1.5097    0.5107    1.9513 H   0  0  0  0  0  0  0  0  0  0  0  0
   -1.3177   -1.3051    1.8143 H   0  0  0  0  0  0  0  0  0  0  0  0
  1  2  1  0
  2  3  1  0
  3  4  1  0
  4  5  1  0
  5  6  1  0
  6  7  1  0
  7  8  2  0
  8  9  1  0
  5  3  1  0
  9  5  1  0
  1 10  1  0
  2 11  1  0
  2 12  1  0
  3 13  1  0
  4 14  1  0
  4 15  1  0
  6 16  1  0
  6 17  1  0
  7 18  1  0
  8 19  1  0
  9 20  1  0
  9 21  1  0
M  END
