
     RDKit          3D

 19 20  0  0  0  0  0  0  0  0999 V2000
    2.4599    1.0358    0.0639 O   0  0  0  0  0  0  0  0  0  0  0  0
    1.8088   -0.1253   -0.3486 C   0  0  0  0  0  0  0  0  0  0  0  0
    0.3975   -0.1917   -0.0019 C   0  0  0  0  0  0  0  0  0  0  0  0
   -0.4557   -1.2809   -0.6111 C   0  0  0  0  0  0  0  0  0  0  0  0
   -1.7238   -1.0035    0.2303 C   0  0  0  0  0  0  0  0  0  0  0  0
   -1.2308    0.2755    0.8786 C   0  0  0  0  0  0  0  0  0  0  0  0
    0.0375   -0.1424    1.3441 O   0  0  0  0  0  0  0  0  0  0  0  0
   -0.4733    1.0233   -0.1967 C   0  0  0  0  0  0  0  0  0  0  0  0
    0.0656    2.1901    0.2811 O   0  0  0  0  0  0  0  0  0  0  0  0
    3.4243    0.8405    0.1756 H   0  0  0  0  0  0  0  0  0  0  0  0
    1.9892   -0.3343   -1.4235 H   0  0  0  0  0  0  0  0  0  0  0  0
    2.3477   -0.9622    0.1888 H   0  0  0  0  0  0  0  0  0  0  0  0
   -0.6867   -1.1162   -1.6702 H   0  0  0  0  0  0  0  0  0  0  0  0
   -0.0621   -2.2922   -0.3930 H   0  0  0  0  0  0  0  0  0  0  0  0
   -2.5993   -0.8630   -0.3998 H   0  0  0  0  0  0  0  0  0  0  0  0
   -1.8278   -1.7526    1.0238 H   0  0  0  0  0  0  0  0  0  0  0  0
   -1.8618    0.8057    1.5475 H   0  0  0  0  0  0  0  0  0  0  0  0
   -0.9460    1.0455   -1.1914 H   0  0  0  0  0  0  0  0  0  0  0  0
   -0.6634    2.8480    0.5026 H   0  0  0  0  0  0  0  0  0  0  0  0
  1  2  1  0
  2  3  1  0
  3  4  1  0
  4  5  1  0
  5  6  1  0
  6  7  1  0
  6  8  1  0
  8  9  1  0
  7  3  1  0
  8  3  1  0
  1 10  1  0
  2 11  1  0
  2 12  1  0
  4 13  1  0
  4 14  1  0
  5 15  1  0
  5 16  1  0
  6 17  1  0
  8 18  1  0
  9 19  1  0
M  END
