
     RDKit          3D

 19 20  0  0  0  0  0  0  0  0999 V2000
    2.6049    0.0648   -0.2602 O   0  0  0  0  0  0  0  0  0  0  0  0
    1.6449   -0.6243    0.4381 C   0  0  0  0  0  0  0  0  0  0  0  0
    0.2768    0.0102    0.3689 C   0  0  0  0  0  0  0  0  0  0  0  0
   -0.7931   -0.9670    0.7966 C   0  0  0  0  0  0  0  0  0  0  0  0
   -1.5063   -0.7472   -0.5097 C   0  0  0  0  0  0  0  0  0  0  0  0
   -0.3317    0.0646   -1.0078 C   0  0  0  0  0  0  0  0  0  0  0  0
   -0.6780    1.3830   -1.2066 O   0  0  0  0  0  0  0  0  0  0  0  0
   -0.6329    2.0226    0.0184 C   0  0  0  0  0  0  0  0  0  0  0  0
    0.1768    1.2838    0.8568 O   0  0  0  0  0  0  0  0  0  0  0  0
    3.1963   -0.5314   -0.8113 H   0  0  0  0  0  0  0  0  0  0  0  0
    1.5983   -1.6708    0.1431 H   0  0  0  0  0  0  0  0  0  0  0  0
    1.9394   -0.6070    1.5220 H   0  0  0  0  0  0  0  0  0  0  0  0
   -1.3153   -0.5808    1.6994 H   0  0  0  0  0  0  0  0  0  0  0  0
   -0.4272   -2.0241    0.8901 H   0  0  0  0  0  0  0  0  0  0  0  0
   -1.6852   -1.6937   -1.0665 H   0  0  0  0  0  0  0  0  0  0  0  0
   -2.4373   -0.1664   -0.3485 H   0  0  0  0  0  0  0  0  0  0  0  0
    0.2658   -0.3874   -1.8025 H   0  0  0  0  0  0  0  0  0  0  0  0
   -0.2262    3.0370   -0.1101 H   0  0  0  0  0  0  0  0  0  0  0  0
   -1.6699    2.1341    0.3900 H   0  0  0  0  0  0  0  0  0  0  0  0
  1  2  1  0
  2  3  1  0
  3  4  1  0
  4  5  1  0
  5  6  1  0
  6  7  1  0
  7  8  1  0
  8  9  1  0
  6  3  1  0
  9  3  1  0
  1 10  1  0
  2 11  1  0
  2 12  1  0
  4 13  1  0
  4 14  1  0
  5 15  1  0
  5 16  1  0
  6 17  1  0
  8 18  1  0
  8 19  1  0
M  END
