
     RDKit          3D

 19 20  0  0  0  0  0  0  0  0999 V2000
    2.9408   -0.2799   -0.2994 O   0  0  0  0  0  0  0  0  0  0  0  0
    2.0713    0.6017    0.3770 C   0  0  0  0  0  0  0  0  0  0  0  0
    0.7365   -0.1412    0.5893 C   0  0  0  0  0  0  0  0  0  0  0  0
   -0.0185   -0.6186   -0.5047 C   0  0  0  0  0  0  0  0  0  0  0  0
   -1.4950   -0.7719   -0.6937 C   0  0  0  0  0  0  0  0  0  0  0  0
   -2.2729   -1.2513    0.2963 O   0  0  0  0  0  0  0  0  0  0  0  0
   -1.3448    0.7569   -0.8136 C   0  0  0  0  0  0  0  0  0  0  0  0
   -0.4777    0.5864    0.4138 C   0  0  0  0  0  0  0  0  0  0  0  0
   -1.3675    0.2863    1.4767 O   0  0  0  0  0  0  0  0  0  0  0  0
    3.8752   -0.1218   -0.0872 H   0  0  0  0  0  0  0  0  0  0  0  0
    2.5404    0.8652    1.3227 H   0  0  0  0  0  0  0  0  0  0  0  0
    1.9187    1.4528   -0.3189 H   0  0  0  0  0  0  0  0  0  0  0  0
    0.9248   -0.9041    1.4127 H   0  0  0  0  0  0  0  0  0  0  0  0
    0.3841   -0.2215   -1.5012 H   0  0  0  0  0  0  0  0  0  0  0  0
   -1.7571   -1.2626   -1.6649 H   0  0  0  0  0  0  0  0  0  0  0  0
   -2.7105   -2.0893    0.0614 H   0  0  0  0  0  0  0  0  0  0  0  0
   -0.7952    0.9947   -1.7431 H   0  0  0  0  0  0  0  0  0  0  0  0
   -2.2436    1.3343   -0.6575 H   0  0  0  0  0  0  0  0  0  0  0  0
   -0.9089    0.2386    2.3343 H   0  0  0  0  0  0  0  0  0  0  0  0
  1  2  1  0
  2  3  1  0
  3  4  1  0
  4  5  1  0
  5  6  1  0
  5  7  1  0
  7  8  1  0
  8  9  1  0
  8  3  1  0
  8  4  1  0
  1 10  1  0
  2 11  1  0
  2 12  1  0
  3 13  1  0
  4 14  1  0
  5 15  1  0
  6 16  1  0
  7 17  1  0
  7 18  1  0
  9 19  1  0
M  END
