
     RDKit          3D

 19 20  0  0  0  0  0  0  0  0999 V2000
   -1.2463    1.8339   -0.5356 O   0  0  0  0  0  0  0  0  0  0  0  0
   -0.0572    1.2369   -0.8814 C   0  0  0  0  0  0  0  0  0  0  0  0
   -0.0404   -0.2258   -0.5629 C   0  0  0  0  0  0  0  0  0  0  0  0
   -1.2873   -0.9928   -0.5987 C   0  0  0  0  0  0  0  0  0  0  0  0
   -1.4811   -0.5415    0.8693 C   0  0  0  0  0  0  0  0  0  0  0  0
   -0.0099   -0.5244    0.9272 C   0  0  0  0  0  0  0  0  0  0  0  0
    1.2591   -0.5830    1.2617 C   0  0  0  0  0  0  0  0  0  0  0  0
    2.0796   -0.3437    0.0182 C   0  0  0  0  0  0  0  0  0  0  0  0
    1.1743   -0.7812   -0.9956 O   0  0  0  0  0  0  0  0  0  0  0  0
   -1.0905    2.4975    0.1653 H   0  0  0  0  0  0  0  0  0  0  0  0
    0.1710    1.4365   -1.9534 H   0  0  0  0  0  0  0  0  0  0  0  0
    0.7475    1.7898   -0.3169 H   0  0  0  0  0  0  0  0  0  0  0  0
   -1.1289   -2.0690   -0.6126 H   0  0  0  0  0  0  0  0  0  0  0  0
   -2.1339   -0.6071   -1.2011 H   0  0  0  0  0  0  0  0  0  0  0  0
   -1.9777    0.4060    0.9249 H   0  0  0  0  0  0  0  0  0  0  0  0
   -1.9660   -1.3839    1.4273 H   0  0  0  0  0  0  0  0  0  0  0  0
    1.7060   -0.7625    2.2164 H   0  0  0  0  0  0  0  0  0  0  0  0
    2.9294   -1.0581    0.0103 H   0  0  0  0  0  0  0  0  0  0  0  0
    2.3522    0.6723   -0.1625 H   0  0  0  0  0  0  0  0  0  0  0  0
  1  2  1  0
  2  3  1  0
  3  4  1  0
  4  5  1  0
  5  6  1  0
  6  7  2  0
  7  8  1  0
  8  9  1  0
  6  3  1  0
  9  3  1  0
  1 10  1  0
  2 11  1  0
  2 12  1  0
  4 13  1  0
  4 14  1  0
  5 15  1  0
  5 16  1  0
  7 17  1  0
  8 18  1  0
  8 19  1  0
M  END
