
     RDKit          3D

 21 22  0  0  0  0  0  0  0  0999 V2000
   -2.5872    0.0167    1.0638 O   0  0  0  0  0  0  0  0  0  0  0  0
   -1.9500   -0.5084   -0.0572 C   0  0  0  0  0  0  0  0  0  0  0  0
   -0.5631   -0.0876   -0.1797 C   0  0  0  0  0  0  0  0  0  0  0  0
   -0.3563    1.4018   -0.2940 C   0  0  0  0  0  0  0  0  0  0  0  0
    0.8505    1.7074    0.1419 C   0  0  0  0  0  0  0  0  0  0  0  0
    1.4987    0.4297    0.5152 C   0  0  0  0  0  0  0  0  0  0  0  0
    1.6958   -0.3464   -0.7594 C   0  0  0  0  0  0  0  0  0  0  0  0
    0.2985   -0.8228   -1.1505 C   0  0  0  0  0  0  0  0  0  0  0  0
    0.2702   -0.2982    1.1040 C   0  0  0  0  0  0  0  0  0  0  0  0
   -2.3612   -0.4724    1.8937 H   0  0  0  0  0  0  0  0  0  0  0  0
   -1.9878   -1.6125    0.0594 H   0  0  0  0  0  0  0  0  0  0  0  0
   -2.5043   -0.2777   -0.9777 H   0  0  0  0  0  0  0  0  0  0  0  0
   -1.0790    2.1051   -0.6716 H   0  0  0  0  0  0  0  0  0  0  0  0
    1.2966    2.6680    0.2212 H   0  0  0  0  0  0  0  0  0  0  0  0
    2.3264    0.4838    1.1811 H   0  0  0  0  0  0  0  0  0  0  0  0
    2.4121   -1.1590   -0.6777 H   0  0  0  0  0  0  0  0  0  0  0  0
    2.0660    0.3636   -1.5382 H   0  0  0  0  0  0  0  0  0  0  0  0
    0.2591   -1.9034   -0.8996 H   0  0  0  0  0  0  0  0  0  0  0  0
    0.0725   -0.6151   -2.2046 H   0  0  0  0  0  0  0  0  0  0  0  0
   -0.1273    0.2753    1.9408 H   0  0  0  0  0  0  0  0  0  0  0  0
    0.4700   -1.3480    1.2892 H   0  0  0  0  0  0  0  0  0  0  0  0
  1  2  1  0
  2  3  1  0
  3  4  1  0
  4  5  2  0
  5  6  1  0
  6  7  1  0
  7  8  1  0
  6  9  1  0
  8  3  1  0
  9  3  1  0
  1 10  1  0
  2 11  1  0
  2 12  1  0
  4 13  1  0
  5 14  1  0
  6 15  1  0
  7 16  1  0
  7 17  1  0
  8 18  1  0
  8 19  1  0
  9 20  1  0
  9 21  1  0
M  END
