
     RDKit          3D

 19 20  0  0  0  0  0  0  0  0999 V2000
    2.0795    0.9430    0.7107 O   0  0  0  0  0  0  0  0  0  0  0  0
    2.1227    0.0082   -0.3205 C   0  0  0  0  0  0  0  0  0  0  0  0
    0.7477   -0.3177   -0.8505 C   0  0  0  0  0  0  0  0  0  0  0  0
   -0.0658   -0.9696    0.2086 C   0  0  0  0  0  0  0  0  0  0  0  0
   -1.3092   -0.1603    0.2686 C   0  0  0  0  0  0  0  0  0  0  0  0
   -2.4883   -0.8958    0.4725 O   0  0  0  0  0  0  0  0  0  0  0  0
   -1.3416    1.2781    0.5400 C   0  0  0  0  0  0  0  0  0  0  0  0
   -1.1935    0.7942   -0.8488 C   0  0  0  0  0  0  0  0  0  0  0  0
    0.0843    0.7612   -1.3549 O   0  0  0  0  0  0  0  0  0  0  0  0
    2.1644    0.5412    1.6070 H   0  0  0  0  0  0  0  0  0  0  0  0
    2.6188   -0.8945    0.0880 H   0  0  0  0  0  0  0  0  0  0  0  0
    2.7519    0.3537   -1.1654 H   0  0  0  0  0  0  0  0  0  0  0  0
    0.8982   -1.0473   -1.6835 H   0  0  0  0  0  0  0  0  0  0  0  0
   -0.3198   -2.0238   -0.0584 H   0  0  0  0  0  0  0  0  0  0  0  0
    0.4831   -1.0338    1.1706 H   0  0  0  0  0  0  0  0  0  0  0  0
   -2.3468   -1.6903    1.0119 H   0  0  0  0  0  0  0  0  0  0  0  0
   -0.5051    1.8488    0.9588 H   0  0  0  0  0  0  0  0  0  0  0  0
   -2.3352    1.7017    0.8156 H   0  0  0  0  0  0  0  0  0  0  0  0
   -2.0453    0.8032   -1.5703 H   0  0  0  0  0  0  0  0  0  0  0  0
  1  2  1  0
  2  3  1  0
  3  4  1  0
  4  5  1  0
  5  6  1  0
  5  7  1  0
  7  8  1  0
  8  9  1  0
  9  3  1  0
  8  5  1  0
  1 10  1  0
  2 11  1  0
  2 12  1  0
  3 13  1  0
  4 14  1  0
  4 15  1  0
  6 16  1  0
  7 17  1  0
  7 18  1  0
  8 19  1  0
M  END
