
     RDKit          3D

 21 22  0  0  0  0  0  0  0  0999 V2000
    2.1216   -1.6009    0.1646 O   0  0  0  0  0  0  0  0  0  0  0  0
    1.9935   -0.2409   -0.0787 C   0  0  0  0  0  0  0  0  0  0  0  0
    0.5418    0.1145   -0.3523 C   0  0  0  0  0  0  0  0  0  0  0  0
    0.2021    1.5647   -0.2444 C   0  0  0  0  0  0  0  0  0  0  0  0
   -0.8097    1.2661    0.8138 C   0  0  0  0  0  0  0  0  0  0  0  0
   -0.3718   -0.1750    0.8097 C   0  0  0  0  0  0  0  0  0  0  0  0
   -1.3537   -1.1431    0.1937 C   0  0  0  0  0  0  0  0  0  0  0  0
   -1.3041   -0.6506   -1.2608 C   0  0  0  0  0  0  0  0  0  0  0  0
    0.0771   -0.5669   -1.4466 O   0  0  0  0  0  0  0  0  0  0  0  0
    2.3707   -1.7019    1.1374 H   0  0  0  0  0  0  0  0  0  0  0  0
    2.3777    0.3964    0.7212 H   0  0  0  0  0  0  0  0  0  0  0  0
    2.5723   -0.0081   -1.0008 H   0  0  0  0  0  0  0  0  0  0  0  0
    1.0596    2.1779    0.1371 H   0  0  0  0  0  0  0  0  0  0  0  0
   -0.2278    1.9878   -1.1890 H   0  0  0  0  0  0  0  0  0  0  0  0
   -0.6527    1.8081    1.7816 H   0  0  0  0  0  0  0  0  0  0  0  0
   -1.8766    1.4309    0.5147 H   0  0  0  0  0  0  0  0  0  0  0  0
    0.0940   -0.4695    1.7434 H   0  0  0  0  0  0  0  0  0  0  0  0
   -0.8863   -2.1375    0.1861 H   0  0  0  0  0  0  0  0  0  0  0  0
   -2.3555   -1.0939    0.6135 H   0  0  0  0  0  0  0  0  0  0  0  0
   -1.7654    0.3670   -1.2975 H   0  0  0  0  0  0  0  0  0  0  0  0
   -1.8067   -1.3250   -1.9466 H   0  0  0  0  0  0  0  0  0  0  0  0
  1  2  1  0
  2  3  1  0
  3  4  1  0
  4  5  1  0
  5  6  1  0
  6  7  1  0
  7  8  1  0
  8  9  1  0
  6  3  1  0
  9  3  1  0
  1 10  1  0
  2 11  1  0
  2 12  1  0
  4 13  1  0
  4 14  1  0
  5 15  1  0
  5 16  1  0
  6 17  1  0
  7 18  1  0
  7 19  1  0
  8 20  1  0
  8 21  1  0
M  END
