
     RDKit          3D

 18 19  0  0  0  0  0  0  0  0999 V2000
   -1.9174   -0.9402   -1.0517 O   0  0  0  0  0  0  0  0  0  0  0  0
   -1.5801   -0.3853    0.1668 C   0  0  0  0  0  0  0  0  0  0  0  0
   -0.1199   -0.1762    0.3664 C   0  0  0  0  0  0  0  0  0  0  0  0
    0.8581   -1.2948    0.3332 C   0  0  0  0  0  0  0  0  0  0  0  0
    1.8081   -0.4349   -0.5094 C   0  0  0  0  0  0  0  0  0  0  0  0
    0.7243    0.6208   -0.5180 C   0  0  0  0  0  0  0  0  0  0  0  0
    0.3742    1.2045    0.7804 C   0  0  0  0  0  0  0  0  0  0  0  0
   -0.5577    2.2068    0.8540 O   0  0  0  0  0  0  0  0  0  0  0  0
   -2.7364   -0.4802   -1.3961 H   0  0  0  0  0  0  0  0  0  0  0  0
   -2.0765    0.6206    0.2632 H   0  0  0  0  0  0  0  0  0  0  0  0
   -1.9759   -1.0286    0.9916 H   0  0  0  0  0  0  0  0  0  0  0  0
    1.3273   -1.4856    1.3260 H   0  0  0  0  0  0  0  0  0  0  0  0
    0.5572   -2.1670   -0.2364 H   0  0  0  0  0  0  0  0  0  0  0  0
    2.7156   -0.1031    0.0366 H   0  0  0  0  0  0  0  0  0  0  0  0
    1.9944   -0.8351   -1.5250 H   0  0  0  0  0  0  0  0  0  0  0  0
    0.3166    0.9399   -1.4729 H   0  0  0  0  0  0  0  0  0  0  0  0
    1.1110    1.1538    1.6051 H   0  0  0  0  0  0  0  0  0  0  0  0
   -0.8229    2.5845   -0.0139 H   0  0  0  0  0  0  0  0  0  0  0  0
  1  2  1  0
  2  3  1  0
  3  4  1  0
  4  5  1  0
  5  6  1  0
  6  7  1  0
  7  8  1  0
  6  3  1  0
  7  3  1  0
  1  9  1  0
  2 10  1  0
  2 11  1  0
  4 12  1  0
  4 13  1  0
  5 14  1  0
  5 15  1  0
  6 16  1  0
  7 17  1  0
  8 18  1  0
M  END
