
     RDKit          3D

 17 19  0  0  0  0  0  0  0  0999 V2000
    2.0187    1.5032   -0.0501 O   0  0  0  0  0  0  0  0  0  0  0  0
    1.6961    0.1819   -0.3398 C   0  0  0  0  0  0  0  0  0  0  0  0
    0.3993   -0.2643    0.2086 C   0  0  0  0  0  0  0  0  0  0  0  0
   -0.5562   -1.0974   -0.6627 C   0  0  0  0  0  0  0  0  0  0  0  0
   -1.7567   -0.9966    0.2272 C   0  0  0  0  0  0  0  0  0  0  0  0
   -2.7920   -0.2145    0.2620 O   0  0  0  0  0  0  0  0  0  0  0  0
   -1.7520    0.5656    0.1679 C   0  0  0  0  0  0  0  0  0  0  0  0
   -0.5097    0.7437    0.9368 C   0  0  0  0  0  0  0  0  0  0  0  0
    0.1881   -0.2336    1.5754 O   0  0  0  0  0  0  0  0  0  0  0  0
    3.0038    1.5933    0.0076 H   0  0  0  0  0  0  0  0  0  0  0  0
    2.5001   -0.4806    0.0946 H   0  0  0  0  0  0  0  0  0  0  0  0
    1.7160    0.0485   -1.4402 H   0  0  0  0  0  0  0  0  0  0  0  0
   -0.7041   -0.6166   -1.6448 H   0  0  0  0  0  0  0  0  0  0  0  0
   -0.1783   -2.1210   -0.7047 H   0  0  0  0  0  0  0  0  0  0  0  0
   -1.4915   -1.4230    1.2478 H   0  0  0  0  0  0  0  0  0  0  0  0
   -1.6495    1.0124   -0.8713 H   0  0  0  0  0  0  0  0  0  0  0  0
   -0.1319    1.7990    0.9858 H   0  0  0  0  0  0  0  0  0  0  0  0
  1  2  1  0
  2  3  1  0
  3  4  1  0
  4  5  1  0
  5  6  1  0
  6  7  1  0
  7  8  1  0
  8  9  1  0
  8  3  1  0
  9  3  1  0
  7  5  1  0
  1 10  1  0
  2 11  1  0
  2 12  1  0
  4 13  1  0
  4 14  1  0
  5 15  1  0
  7 16  1  0
  8 17  1  0
M  END
