
     RDKit          3D

 17 19  0  0  0  0  0  0  0  0999 V2000
    2.5580    0.1251   -1.2146 O   0  0  0  0  0  0  0  0  0  0  0  0
    1.8783    0.0803    0.0004 C   0  0  0  0  0  0  0  0  0  0  0  0
    0.4261    0.0376   -0.1410 C   0  0  0  0  0  0  0  0  0  0  0  0
   -0.3247    0.0473    1.1966 C   0  0  0  0  0  0  0  0  0  0  0  0
   -1.7301   -0.0330    0.5882 C   0  0  0  0  0  0  0  0  0  0  0  0
   -1.5487    0.6848   -0.6854 C   0  0  0  0  0  0  0  0  0  0  0  0
   -0.1914    1.0741   -0.7843 O   0  0  0  0  0  0  0  0  0  0  0  0
   -1.4985   -0.7879   -0.6471 C   0  0  0  0  0  0  0  0  0  0  0  0
   -0.1152   -1.0741   -0.7301 O   0  0  0  0  0  0  0  0  0  0  0  0
    3.4947   -0.1891   -1.0203 H   0  0  0  0  0  0  0  0  0  0  0  0
    2.2320    0.9259    0.6040 H   0  0  0  0  0  0  0  0  0  0  0  0
    2.2043   -0.8894    0.4813 H   0  0  0  0  0  0  0  0  0  0  0  0
   -0.0861   -0.8136    1.8135 H   0  0  0  0  0  0  0  0  0  0  0  0
   -0.1609    1.0267    1.6399 H   0  0  0  0  0  0  0  0  0  0  0  0
   -2.6066   -0.0382    1.2005 H   0  0  0  0  0  0  0  0  0  0  0  0
   -2.3162    1.2694   -1.1728 H   0  0  0  0  0  0  0  0  0  0  0  0
   -2.2150   -1.4457   -1.1288 H   0  0  0  0  0  0  0  0  0  0  0  0
  1  2  1  0
  2  3  1  0
  3  4  1  0
  4  5  1  0
  5  6  1  0
  6  7  1  0
  6  8  1  0
  8  9  1  0
  7  3  1  0
  9  3  1  0
  8  5  1  0
  1 10  1  0
  2 11  1  0
  2 12  1  0
  4 13  1  0
  4 14  1  0
  5 15  1  0
  6 16  1  0
  8 17  1  0
M  END
