
     RDKit          3D

 16 17  0  0  0  0  0  0  0  0999 V2000
    2.3079    1.0008    0.1157 O   0  0  0  0  0  0  0  0  0  0  0  0
    2.2606   -0.3353   -0.2836 C   0  0  0  0  0  0  0  0  0  0  0  0
    0.9088   -0.7453   -0.7631 C   0  0  0  0  0  0  0  0  0  0  0  0
    0.3176   -0.1102   -1.8445 O   0  0  0  0  0  0  0  0  0  0  0  0
   -0.2167    0.2509   -0.5962 C   0  0  0  0  0  0  0  0  0  0  0  0
   -1.5338   -0.3542   -0.1752 C   0  0  0  0  0  0  0  0  0  0  0  0
   -2.6084    0.6337    0.2029 C   0  0  0  0  0  0  0  0  0  0  0  0
   -2.6664   -0.1410   -0.9505 O   0  0  0  0  0  0  0  0  0  0  0  0
    2.2344    1.0142    1.1017 H   0  0  0  0  0  0  0  0  0  0  0  0
    2.5474   -1.0060    0.5529 H   0  0  0  0  0  0  0  0  0  0  0  0
    2.9891   -0.5315   -1.1218 H   0  0  0  0  0  0  0  0  0  0  0  0
    0.6775   -1.8267   -0.5824 H   0  0  0  0  0  0  0  0  0  0  0  0
   -0.0006    1.2822   -0.3165 H   0  0  0  0  0  0  0  0  0  0  0  0
   -1.4934   -1.2473    0.4958 H   0  0  0  0  0  0  0  0  0  0  0  0
   -2.4428    1.7227    0.0164 H   0  0  0  0  0  0  0  0  0  0  0  0
   -3.2813    0.3930    1.0590 H   0  0  0  0  0  0  0  0  0  0  0  0
  1  2  1  0
  2  3  1  0
  3  4  1  0
  4  5  1  0
  5  6  1  0
  6  7  1  0
  7  8  1  0
  5  3  1  0
  8  6  1  0
  1  9  1  0
  2 10  1  0
  2 11  1  0
  3 12  1  0
  5 13  1  0
  6 14  1  0
  7 15  1  0
  7 16  1  0
M  END
