
     RDKit          3D

 19 20  0  0  0  0  0  0  0  0999 V2000
    2.3618   -0.8876    0.8030 O   0  0  0  0  0  0  0  0  0  0  0  0
    1.8209   -0.1968   -0.2547 C   0  0  0  0  0  0  0  0  0  0  0  0
    0.5720    0.5269    0.1997 C   0  0  0  0  0  0  0  0  0  0  0  0
   -0.0429    1.2832   -0.9066 C   0  0  0  0  0  0  0  0  0  0  0  0
   -1.3037    0.9706   -1.0851 C   0  0  0  0  0  0  0  0  0  0  0  0
   -1.7463   -0.0423   -0.1349 C   0  0  0  0  0  0  0  0  0  0  0  0
   -1.1359   -1.4016   -0.1646 C   0  0  0  0  0  0  0  0  0  0  0  0
   -0.4981   -0.3799    0.6721 C   0  0  0  0  0  0  0  0  0  0  0  0
   -0.7297   -0.3486    2.0618 O   0  0  0  0  0  0  0  0  0  0  0  0
    3.2711   -0.5743    1.0193 H   0  0  0  0  0  0  0  0  0  0  0  0
    2.5495    0.5744   -0.5764 H   0  0  0  0  0  0  0  0  0  0  0  0
    1.6082   -0.8427   -1.1332 H   0  0  0  0  0  0  0  0  0  0  0  0
    0.9067    1.2200    1.0101 H   0  0  0  0  0  0  0  0  0  0  0  0
    0.5627    2.0162   -1.4746 H   0  0  0  0  0  0  0  0  0  0  0  0
   -1.9259    1.4257   -1.8567 H   0  0  0  0  0  0  0  0  0  0  0  0
   -2.7130    0.0549    0.3921 H   0  0  0  0  0  0  0  0  0  0  0  0
   -1.6533   -2.2256    0.3347 H   0  0  0  0  0  0  0  0  0  0  0  0
   -0.6501   -1.6728   -1.1198 H   0  0  0  0  0  0  0  0  0  0  0  0
   -1.2542    0.5002    2.2139 H   0  0  0  0  0  0  0  0  0  0  0  0
  1  2  1  0
  2  3  1  0
  3  4  1  0
  4  5  2  0
  5  6  1  0
  6  7  1  0
  7  8  1  0
  8  9  1  0
  8  3  1  0
  8  6  1  0
  1 10  1  0
  2 11  1  0
  2 12  1  0
  3 13  1  0
  4 14  1  0
  5 15  1  0
  6 16  1  0
  7 17  1  0
  7 18  1  0
  9 19  1  0
M  END
