
     RDKit          3D

 19 19  0  0  0  0  0  0  0  0999 V2000
    2.8362   -0.7794    0.1901 O   0  0  0  0  0  0  0  0  0  0  0  0
    1.9734    0.0386   -0.5590 C   0  0  0  0  0  0  0  0  0  0  0  0
    0.7621    0.4287    0.2125 C   0  0  0  0  0  0  0  0  0  0  0  0
   -0.2961    1.2842   -0.3523 C   0  0  0  0  0  0  0  0  0  0  0  0
   -1.0781    2.0647    0.4752 O   0  0  0  0  0  0  0  0  0  0  0  0
   -0.5485   -0.1799   -0.2950 C   0  0  0  0  0  0  0  0  0  0  0  0
   -0.5196   -0.8275   -1.5327 O   0  0  0  0  0  0  0  0  0  0  0  0
   -1.4046   -0.7961    0.7579 C   0  0  0  0  0  0  0  0  0  0  0  0
   -2.7451   -0.8806    0.4127 O   0  0  0  0  0  0  0  0  0  0  0  0
    2.3274   -1.2147    0.9318 H   0  0  0  0  0  0  0  0  0  0  0  0
    2.5490    0.9186   -0.9484 H   0  0  0  0  0  0  0  0  0  0  0  0
    1.6638   -0.5708   -1.4292 H   0  0  0  0  0  0  0  0  0  0  0  0
    0.9361    0.3918    1.3260 H   0  0  0  0  0  0  0  0  0  0  0  0
   -0.0758    1.7542   -1.3315 H   0  0  0  0  0  0  0  0  0  0  0  0
   -0.6388    2.3764    1.2876 H   0  0  0  0  0  0  0  0  0  0  0  0
   -0.3883   -0.1866   -2.2805 H   0  0  0  0  0  0  0  0  0  0  0  0
   -1.0011   -1.8361    0.9384 H   0  0  0  0  0  0  0  0  0  0  0  0
   -1.2603   -0.2727    1.7327 H   0  0  0  0  0  0  0  0  0  0  0  0
   -3.0916   -1.7128    0.8183 H   0  0  0  0  0  0  0  0  0  0  0  0
  1  2  1  0
  2  3  1  0
  3  4  1  0
  4  5  1  0
  4  6  1  0
  6  7  1  0
  6  8  1  0
  8  9  1  0
  6  3  1  0
  1 10  1  0
  2 11  1  0
  2 12  1  0
  3 13  1  0
  4 14  1  0
  5 15  1  0
  7 16  1  0
  8 17  1  0
  8 18  1  0
  9 19  1  0
M  END
