
     RDKit          3D

 19 20  0  0  0  0  0  0  0  0999 V2000
    2.6278    0.2843   -0.0698 O   0  0  0  0  0  0  0  0  0  0  0  0
    1.5276    0.0941    0.7905 C   0  0  0  0  0  0  0  0  0  0  0  0
    0.4868   -0.6474    0.0077 C   0  0  0  0  0  0  0  0  0  0  0  0
    0.0044    0.0865   -1.2433 C   0  0  0  0  0  0  0  0  0  0  0  0
   -0.3269    1.4176   -0.6778 C   0  0  0  0  0  0  0  0  0  0  0  0
   -0.9736    1.0921    0.4587 C   0  0  0  0  0  0  0  0  0  0  0  0
   -0.9562   -0.3693    0.4585 C   0  0  0  0  0  0  0  0  0  0  0  0
   -1.4836   -1.1009    1.4123 O   0  0  0  0  0  0  0  0  0  0  0  0
   -1.3020   -0.6773   -1.0059 C   0  0  0  0  0  0  0  0  0  0  0  0
    2.9938   -0.6249   -0.3150 H   0  0  0  0  0  0  0  0  0  0  0  0
    1.1416    1.1018    1.0425 H   0  0  0  0  0  0  0  0  0  0  0  0
    1.8217   -0.5110    1.6482 H   0  0  0  0  0  0  0  0  0  0  0  0
    0.6237   -1.7213   -0.1123 H   0  0  0  0  0  0  0  0  0  0  0  0
    0.5150   -0.0259   -2.1457 H   0  0  0  0  0  0  0  0  0  0  0  0
   -0.1164    2.4156   -1.0576 H   0  0  0  0  0  0  0  0  0  0  0  0
   -1.3971    1.7699    1.1844 H   0  0  0  0  0  0  0  0  0  0  0  0
   -1.8500   -0.6553    2.2152 H   0  0  0  0  0  0  0  0  0  0  0  0
   -2.1959   -0.1919   -1.3820 H   0  0  0  0  0  0  0  0  0  0  0  0
   -1.1407   -1.7368   -1.2086 H   0  0  0  0  0  0  0  0  0  0  0  0
  1  2  1  0
  2  3  1  0
  3  4  1  0
  4  5  1  0
  5  6  2  0
  6  7  1  0
  7  8  1  0
  7  9  1  0
  7  3  1  0
  9  4  1  0
  1 10  1  0
  2 11  1  0
  2 12  1  0
  3 13  1  0
  4 14  1  0
  5 15  1  0
  6 16  1  0
  8 17  1  0
  9 18  1  0
  9 19  1  0
M  END
