
     RDKit          3D

 23 24  0  0  0  0  0  0  0  0999 V2000
    1.7429   -0.8945   -1.1068 O   0  0  0  0  0  0  0  0  0  0  0  0
    1.7887   -1.0498    0.2771 C   0  0  0  0  0  0  0  0  0  0  0  0
    0.8308   -0.0598    0.9306 C   0  0  0  0  0  0  0  0  0  0  0  0
    1.2629    1.3408    0.5479 C   0  0  0  0  0  0  0  0  0  0  0  0
   -0.1553    1.6355    0.1458 C   0  0  0  0  0  0  0  0  0  0  0  0
   -0.4289    0.1847    0.2293 C   0  0  0  0  0  0  0  0  0  0  0  0
   -1.7311   -0.1713    0.8378 C   0  0  0  0  0  0  0  0  0  0  0  0
   -2.2296   -0.4800   -0.5831 C   0  0  0  0  0  0  0  0  0  0  0  0
   -0.7660   -0.5584   -1.0078 C   0  0  0  0  0  0  0  0  0  0  0  0
    2.4590   -1.4692   -1.4747 H   0  0  0  0  0  0  0  0  0  0  0  0
    2.8165   -0.7811    0.6154 H   0  0  0  0  0  0  0  0  0  0  0  0
    1.5250   -2.0901    0.4981 H   0  0  0  0  0  0  0  0  0  0  0  0
    0.8234   -0.1439    2.0321 H   0  0  0  0  0  0  0  0  0  0  0  0
    1.9145    1.3879   -0.3673 H   0  0  0  0  0  0  0  0  0  0  0  0
    1.6795    1.9535    1.3583 H   0  0  0  0  0  0  0  0  0  0  0  0
   -0.6719    2.1818    0.9794 H   0  0  0  0  0  0  0  0  0  0  0  0
   -0.2993    2.1303   -0.8282 H   0  0  0  0  0  0  0  0  0  0  0  0
   -1.7815   -1.0552    1.4764 H   0  0  0  0  0  0  0  0  0  0  0  0
   -2.2955    0.7025    1.2220 H   0  0  0  0  0  0  0  0  0  0  0  0
   -2.7279    0.3916   -1.0622 H   0  0  0  0  0  0  0  0  0  0  0  0
   -2.7736   -1.4403   -0.6661 H   0  0  0  0  0  0  0  0  0  0  0  0
   -0.5174   -0.0771   -1.9499 H   0  0  0  0  0  0  0  0  0  0  0  0
   -0.4653   -1.6380   -1.0220 H   0  0  0  0  0  0  0  0  0  0  0  0
  1  2  1  0
  2  3  1  0
  3  4  1  0
  4  5  1  0
  5  6  1  0
  6  7  1  0
  7  8  1  0
  8  9  1  0
  6  3  1  0
  9  6  1  0
  1 10  1  0
  2 11  1  0
  2 12  1  0
  3 13  1  0
  4 14  1  0
  4 15  1  0
  5 16  1  0
  5 17  1  0
  7 18  1  0
  7 19  1  0
  8 20  1  0
  8 21  1  0
  9 22  1  0
  9 23  1  0
M  END
