
     RDKit          3D

 16 17  0  0  0  0  0  0  0  0999 V2000
    1.7381   -0.5243   -0.8722 O   0  0  0  0  0  0  0  0  0  0  0  0
    1.4962   -0.4369    0.5062 C   0  0  0  0  0  0  0  0  0  0  0  0
    0.1154    0.1053    0.7659 C   0  0  0  0  0  0  0  0  0  0  0  0
   -1.0135   -0.7212    0.1961 C   0  0  0  0  0  0  0  0  0  0  0  0
   -0.5661   -1.5766   -0.8085 O   0  0  0  0  0  0  0  0  0  0  0  0
   -1.5574    0.5421   -0.4117 C   0  0  0  0  0  0  0  0  0  0  0  0
   -0.7548    1.1279   -1.3527 O   0  0  0  0  0  0  0  0  0  0  0  0
   -0.2839    1.2802   -0.0652 C   0  0  0  0  0  0  0  0  0  0  0  0
    2.2201    0.2871   -1.1735 H   0  0  0  0  0  0  0  0  0  0  0  0
    1.6682   -1.4184    0.9871 H   0  0  0  0  0  0  0  0  0  0  0  0
    2.2247    0.2832    0.9288 H   0  0  0  0  0  0  0  0  0  0  0  0
   -0.0484    0.2478    1.8541 H   0  0  0  0  0  0  0  0  0  0  0  0
   -1.6550   -1.2220    0.9256 H   0  0  0  0  0  0  0  0  0  0  0  0
   -0.7271   -1.2112   -1.7189 H   0  0  0  0  0  0  0  0  0  0  0  0
   -2.5277    0.9457   -0.1175 H   0  0  0  0  0  0  0  0  0  0  0  0
   -0.3288    2.2913    0.3565 H   0  0  0  0  0  0  0  0  0  0  0  0
  1  2  1  0
  2  3  1  0
  3  4  1  0
  4  5  1  0
  4  6  1  0
  6  7  1  0
  7  8  1  0
  8  3  1  0
  8  6  1  0
  1  9  1  0
  2 10  1  0
  2 11  1  0
  3 12  1  0
  4 13  1  0
  5 14  1  0
  6 15  1  0
  8 16  1  0
M  END
