
     RDKit          3D

 21 22  0  0  0  0  0  0  0  0999 V2000
   -3.1139    0.4092    0.7255 O   0  0  0  0  0  0  0  0  0  0  0  0
   -1.8147   -0.1102    0.8929 C   0  0  0  0  0  0  0  0  0  0  0  0
   -1.2040   -0.4404   -0.4282 C   0  0  0  0  0  0  0  0  0  0  0  0
    0.1598   -0.9962   -0.4240 C   0  0  0  0  0  0  0  0  0  0  0  0
    1.1743   -0.6892    0.6249 C   0  0  0  0  0  0  0  0  0  0  0  0
    2.3246    0.0184   -0.0987 C   0  0  0  0  0  0  0  0  0  0  0  0
    1.9224    1.3040   -0.3456 O   0  0  0  0  0  0  0  0  0  0  0  0
    0.5636    1.4774   -0.4162 C   0  0  0  0  0  0  0  0  0  0  0  0
   -0.1746    0.3555   -1.0820 C   0  0  0  0  0  0  0  0  0  0  0  0
   -3.6478   -0.3447    0.3233 H   0  0  0  0  0  0  0  0  0  0  0  0
   -1.2233    0.5486    1.5256 H   0  0  0  0  0  0  0  0  0  0  0  0
   -1.9706   -1.0854    1.4347 H   0  0  0  0  0  0  0  0  0  0  0  0
   -1.9138   -0.9798   -1.1182 H   0  0  0  0  0  0  0  0  0  0  0  0
    0.4344   -1.8074   -1.1155 H   0  0  0  0  0  0  0  0  0  0  0  0
    1.5584   -1.5914    1.1546 H   0  0  0  0  0  0  0  0  0  0  0  0
    0.8153   -0.0037    1.4124 H   0  0  0  0  0  0  0  0  0  0  0  0
    3.2755   -0.0875    0.4290 H   0  0  0  0  0  0  0  0  0  0  0  0
    2.4501   -0.4817   -1.1044 H   0  0  0  0  0  0  0  0  0  0  0  0
    0.1294    1.7506    0.5858 H   0  0  0  0  0  0  0  0  0  0  0  0
    0.3806    2.3839   -1.0493 H   0  0  0  0  0  0  0  0  0  0  0  0
   -0.1257    0.3700   -2.2003 H   0  0  0  0  0  0  0  0  0  0  0  0
  1  2  1  0
  2  3  1  0
  3  4  1  0
  4  5  1  0
  5  6  1  0
  6  7  1  0
  7  8  1  0
  8  9  1  0
  9  3  1  0
  9  4  1  0
  1 10  1  0
  2 11  1  0
  2 12  1  0
  3 13  1  0
  4 14  1  0
  5 15  1  0
  5 16  1  0
  6 17  1  0
  6 18  1  0
  8 19  1  0
  8 20  1  0
  9 21  1  0
M  END
