
     RDKit          3D

 19 21  0  0  0  0  0  0  0  0999 V2000
    3.3957    0.1829    0.1217 O   0  0  0  0  0  0  0  0  0  0  0  0
    2.1195    0.7293    0.1240 C   0  0  0  0  0  0  0  0  0  0  0  0
    1.0965   -0.3159   -0.1504 C   0  0  0  0  0  0  0  0  0  0  0  0
   -0.0336   -0.5120    0.8697 C   0  0  0  0  0  0  0  0  0  0  0  0
   -0.9891   -0.2091   -0.2270 C   0  0  0  0  0  0  0  0  0  0  0  0
   -2.2937   -0.8041   -0.3984 C   0  0  0  0  0  0  0  0  0  0  0  0
   -2.1223    0.6847   -0.1339 C   0  0  0  0  0  0  0  0  0  0  0  0
    0.0701   -0.1087   -1.2547 C   0  0  0  0  0  0  0  0  0  0  0  0
    1.0771   -1.0496   -1.3023 O   0  0  0  0  0  0  0  0  0  0  0  0
    3.4812   -0.6052   -0.4383 H   0  0  0  0  0  0  0  0  0  0  0  0
    2.0406    1.5913   -0.5928 H   0  0  0  0  0  0  0  0  0  0  0  0
    1.9272    1.1302    1.1503 H   0  0  0  0  0  0  0  0  0  0  0  0
    0.0752    0.2237    1.6792 H   0  0  0  0  0  0  0  0  0  0  0  0
    0.0123   -1.5744    1.2154 H   0  0  0  0  0  0  0  0  0  0  0  0
   -2.5908   -1.1402   -1.4061 H   0  0  0  0  0  0  0  0  0  0  0  0
   -2.6673   -1.4442    0.4504 H   0  0  0  0  0  0  0  0  0  0  0  0
   -2.3859    1.0889    0.8602 H   0  0  0  0  0  0  0  0  0  0  0  0
   -2.3298    1.3292   -1.0387 H   0  0  0  0  0  0  0  0  0  0  0  0
    0.1172    0.8033   -1.8647 H   0  0  0  0  0  0  0  0  0  0  0  0
  1  2  1  0
  2  3  1  0
  3  4  1  0
  4  5  1  0
  5  6  1  0
  6  7  1  0
  5  8  1  0
  8  9  1  0
  8  3  1  0
  9  3  1  0
  7  5  1  0
  1 10  1  0
  2 11  1  0
  2 12  1  0
  4 13  1  0
  4 14  1  0
  6 15  1  0
  6 16  1  0
  7 17  1  0
  7 18  1  0
  8 19  1  0
M  END
