
     RDKit          3D

 18 19  0  0  0  0  0  0  0  0999 V2000
    2.5312   -0.0449   -0.1754 O   0  0  0  0  0  0  0  0  0  0  0  0
    1.5045   -0.9757   -0.2656 C   0  0  0  0  0  0  0  0  0  0  0  0
    0.2228   -0.3542   -0.1263 C   0  0  0  0  0  0  0  0  0  0  0  0
   -1.0289   -1.1515   -0.1890 C   0  0  0  0  0  0  0  0  0  0  0  0
   -1.9729   -0.2208    0.0085 C   0  0  0  0  0  0  0  0  0  0  0  0
   -1.1853    1.0237    0.1712 C   0  0  0  0  0  0  0  0  0  0  0  0
   -0.1561    0.8465   -0.9567 C   0  0  0  0  0  0  0  0  0  0  0  0
   -0.0575    0.5434    1.0736 C   0  0  0  0  0  0  0  0  0  0  0  0
    2.3581    0.6819   -0.8240 H   0  0  0  0  0  0  0  0  0  0  0  0
    1.6712   -1.6819    0.6025 H   0  0  0  0  0  0  0  0  0  0  0  0
    1.5706   -1.5880   -1.1624 H   0  0  0  0  0  0  0  0  0  0  0  0
   -1.0936   -2.2145   -0.3554 H   0  0  0  0  0  0  0  0  0  0  0  0
   -3.0525   -0.3604    0.0393 H   0  0  0  0  0  0  0  0  0  0  0  0
   -1.6282    1.9561    0.3188 H   0  0  0  0  0  0  0  0  0  0  0  0
    0.5347    1.6848   -0.9586 H   0  0  0  0  0  0  0  0  0  0  0  0
   -0.5785    0.5294   -1.9133 H   0  0  0  0  0  0  0  0  0  0  0  0
   -0.3798    0.0297    1.9812 H   0  0  0  0  0  0  0  0  0  0  0  0
    0.7403    1.2966    1.2480 H   0  0  0  0  0  0  0  0  0  0  0  0
  1  2  1  0
  2  3  1  0
  3  4  1  0
  4  5  2  0
  5  6  1  0
  6  7  1  0
  6  8  1  0
  7  3  1  0
  8  3  1  0
  1  9  1  0
  2 10  1  0
  2 11  1  0
  4 12  1  0
  5 13  1  0
  6 14  1  0
  7 15  1  0
  7 16  1  0
  8 17  1  0
  8 18  1  0
M  END
