
     RDKit          3D

 19 21  0  0  0  0  0  0  0  0999 V2000
    2.5171    0.6755    0.7415 O   0  0  0  0  0  0  0  0  0  0  0  0
    1.8999   -0.3991    0.1465 C   0  0  0  0  0  0  0  0  0  0  0  0
    0.4357   -0.1686    0.0476 C   0  0  0  0  0  0  0  0  0  0  0  0
   -0.4392   -1.2365   -0.5809 C   0  0  0  0  0  0  0  0  0  0  0  0
   -1.8090   -0.6123   -0.6446 C   0  0  0  0  0  0  0  0  0  0  0  0
   -1.6735    0.8212   -0.2146 C   0  0  0  0  0  0  0  0  0  0  0  0
   -1.5414    0.8687    1.1878 O   0  0  0  0  0  0  0  0  0  0  0  0
   -0.1684    0.6978    1.1067 C   0  0  0  0  0  0  0  0  0  0  0  0
   -0.2040    1.0694   -0.3256 C   0  0  0  0  0  0  0  0  0  0  0  0
    3.4635    0.6857    0.4060 H   0  0  0  0  0  0  0  0  0  0  0  0
    2.3103   -0.5760   -0.8623 H   0  0  0  0  0  0  0  0  0  0  0  0
    2.0755   -1.3000    0.8053 H   0  0  0  0  0  0  0  0  0  0  0  0
   -0.0613   -1.3789   -1.6330 H   0  0  0  0  0  0  0  0  0  0  0  0
   -0.4111   -2.1793   -0.0059 H   0  0  0  0  0  0  0  0  0  0  0  0
   -2.5267   -1.1377    0.0483 H   0  0  0  0  0  0  0  0  0  0  0  0
   -2.2565   -0.6244   -1.6492 H   0  0  0  0  0  0  0  0  0  0  0  0
   -2.3545    1.5466   -0.6506 H   0  0  0  0  0  0  0  0  0  0  0  0
    0.5149    1.2866    1.7289 H   0  0  0  0  0  0  0  0  0  0  0  0
    0.2286    1.9613   -0.7289 H   0  0  0  0  0  0  0  0  0  0  0  0
  1  2  1  0
  2  3  1  0
  3  4  1  0
  4  5  1  0
  5  6  1  0
  6  7  1  0
  7  8  1  0
  8  9  1  0
  8  3  1  0
  9  3  1  0
  9  6  1  0
  1 10  1  0
  2 11  1  0
  2 12  1  0
  4 13  1  0
  4 14  1  0
  5 15  1  0
  5 16  1  0
  6 17  1  0
  8 18  1  0
  9 19  1  0
M  END
