
     RDKit          3D

 19 20  0  0  0  0  0  0  0  0999 V2000
    2.7538    0.4613   -1.0822 O   0  0  0  0  0  0  0  0  0  0  0  0
    2.0662   -0.4885   -0.3256 C   0  0  0  0  0  0  0  0  0  0  0  0
    0.6251   -0.1032   -0.0953 C   0  0  0  0  0  0  0  0  0  0  0  0
   -0.2338   -1.2475    0.3908 C   0  0  0  0  0  0  0  0  0  0  0  0
   -1.3112   -0.6867    1.2585 C   0  0  0  0  0  0  0  0  0  0  0  0
   -1.9809    0.3509    0.7649 C   0  0  0  0  0  0  0  0  0  0  0  0
   -1.5718    0.8204   -0.5874 C   0  0  0  0  0  0  0  0  0  0  0  0
   -0.0912    0.9008   -0.7493 C   0  0  0  0  0  0  0  0  0  0  0  0
    0.5190    1.1374    0.6005 O   0  0  0  0  0  0  0  0  0  0  0  0
    2.9798    1.2098   -0.4631 H   0  0  0  0  0  0  0  0  0  0  0  0
    2.1614   -1.4924   -0.7771 H   0  0  0  0  0  0  0  0  0  0  0  0
    2.5569   -0.4973    0.6808 H   0  0  0  0  0  0  0  0  0  0  0  0
   -0.7253   -1.6809   -0.5275 H   0  0  0  0  0  0  0  0  0  0  0  0
    0.3448   -2.0367    0.8876 H   0  0  0  0  0  0  0  0  0  0  0  0
   -1.5300   -1.1084    2.2374 H   0  0  0  0  0  0  0  0  0  0  0  0
   -2.7743    0.7973    1.3536 H   0  0  0  0  0  0  0  0  0  0  0  0
   -2.0212    0.1571   -1.3839 H   0  0  0  0  0  0  0  0  0  0  0  0
   -2.0323    1.8300   -0.7405 H   0  0  0  0  0  0  0  0  0  0  0  0
    0.2648    1.6766   -1.4421 H   0  0  0  0  0  0  0  0  0  0  0  0
  1  2  1  0
  2  3  1  0
  3  4  1  0
  4  5  1  0
  5  6  2  0
  6  7  1  0
  7  8  1  0
  8  9  1  0
  8  3  1  0
  9  3  1  0
  1 10  1  0
  2 11  1  0
  2 12  1  0
  4 13  1  0
  4 14  1  0
  5 15  1  0
  6 16  1  0
  7 17  1  0
  7 18  1  0
  8 19  1  0
M  END
