
     RDKit          3D

 18 18  0  0  0  0  0  0  0  0999 V2000
    2.4057    0.6079   -0.5360 O   0  0  0  0  0  0  0  0  0  0  0  0
    1.7347    0.5194    0.6884 C   0  0  0  0  0  0  0  0  0  0  0  0
    0.3517   -0.0430    0.5278 C   0  0  0  0  0  0  0  0  0  0  0  0
    0.3487   -1.3256   -0.0176 O   0  0  0  0  0  0  0  0  0  0  0  0
   -1.0285   -1.5663   -0.0991 C   0  0  0  0  0  0  0  0  0  0  0  0
   -1.4999   -0.3579   -0.8765 C   0  0  0  0  0  0  0  0  0  0  0  0
   -0.5024    0.7169   -0.4244 C   0  0  0  0  0  0  0  0  0  0  0  0
   -1.2160    1.7534    0.1393 O   0  0  0  0  0  0  0  0  0  0  0  0
    2.8650   -0.2700   -0.6973 H   0  0  0  0  0  0  0  0  0  0  0  0
    2.3116   -0.1149    1.3858 H   0  0  0  0  0  0  0  0  0  0  0  0
    1.6240    1.5539    1.0728 H   0  0  0  0  0  0  0  0  0  0  0  0
   -0.1201   -0.1000    1.5086 H   0  0  0  0  0  0  0  0  0  0  0  0
   -1.2778   -2.5156   -0.5569 H   0  0  0  0  0  0  0  0  0  0  0  0
   -1.4095   -1.5533    0.9514 H   0  0  0  0  0  0  0  0  0  0  0  0
   -1.3876   -0.5744   -1.9523 H   0  0  0  0  0  0  0  0  0  0  0  0
   -2.5289   -0.0631   -0.6151 H   0  0  0  0  0  0  0  0  0  0  0  0
    0.0358    1.0664   -1.3248 H   0  0  0  0  0  0  0  0  0  0  0  0
   -0.7067    2.2662    0.8259 H   0  0  0  0  0  0  0  0  0  0  0  0
  1  2  1  0
  2  3  1  0
  3  4  1  0
  4  5  1  0
  5  6  1  0
  6  7  1  0
  7  8  1  0
  7  3  1  0
  1  9  1  0
  2 10  1  0
  2 11  1  0
  3 12  1  0
  5 13  1  0
  5 14  1  0
  6 15  1  0
  6 16  1  0
  7 17  1  0
  8 18  1  0
M  END
