
     RDKit          3D

 19 20  0  0  0  0  0  0  0  0999 V2000
    2.3672    0.0878    1.2469 O   0  0  0  0  0  0  0  0  0  0  0  0
    2.0272    0.8621    0.1319 C   0  0  0  0  0  0  0  0  0  0  0  0
    0.6069    0.5339   -0.2735 C   0  0  0  0  0  0  0  0  0  0  0  0
    0.3949   -0.8884   -0.6295 C   0  0  0  0  0  0  0  0  0  0  0  0
   -1.0088   -1.1559   -0.0817 C   0  0  0  0  0  0  0  0  0  0  0  0
   -1.9605   -0.7165   -0.9907 O   0  0  0  0  0  0  0  0  0  0  0  0
   -2.3454    0.3794   -0.2466 C   0  0  0  0  0  0  0  0  0  0  0  0
   -1.2928    0.0142    0.7882 C   0  0  0  0  0  0  0  0  0  0  0  0
   -0.2054    0.8407    0.8173 O   0  0  0  0  0  0  0  0  0  0  0  0
    3.1534   -0.4668    1.1106 H   0  0  0  0  0  0  0  0  0  0  0  0
    2.7443    0.7420   -0.6999 H   0  0  0  0  0  0  0  0  0  0  0  0
    2.0099    1.9240    0.4805 H   0  0  0  0  0  0  0  0  0  0  0  0
    0.3289    1.1966   -1.1401 H   0  0  0  0  0  0  0  0  0  0  0  0
    0.3439   -1.0308   -1.7458 H   0  0  0  0  0  0  0  0  0  0  0  0
    1.1345   -1.5971   -0.2578 H   0  0  0  0  0  0  0  0  0  0  0  0
   -1.1632   -2.1567    0.3310 H   0  0  0  0  0  0  0  0  0  0  0  0
   -3.3900    0.3460    0.1244 H   0  0  0  0  0  0  0  0  0  0  0  0
   -2.0527    1.3162   -0.7561 H   0  0  0  0  0  0  0  0  0  0  0  0
   -1.6921   -0.2308    1.7909 H   0  0  0  0  0  0  0  0  0  0  0  0
  1  2  1  0
  2  3  1  0
  3  4  1  0
  4  5  1  0
  5  6  1  0
  6  7  1  0
  7  8  1  0
  8  9  1  0
  9  3  1  0
  8  5  1  0
  1 10  1  0
  2 11  1  0
  2 12  1  0
  3 13  1  0
  4 14  1  0
  4 15  1  0
  5 16  1  0
  7 17  1  0
  7 18  1  0
  8 19  1  0
M  END
