
     RDKit          3D

 16 17  0  0  0  0  0  0  0  0999 V2000
    2.7501   -0.2231   -0.4878 O   0  0  0  0  0  0  0  0  0  0  0  0
    1.6029    0.3952   -0.0255 C   0  0  0  0  0  0  0  0  0  0  0  0
    0.3777    0.0539   -0.8577 C   0  0  0  0  0  0  0  0  0  0  0  0
    0.0567   -1.2930   -0.9075 O   0  0  0  0  0  0  0  0  0  0  0  0
   -1.2145   -1.0217   -0.3628 C   0  0  0  0  0  0  0  0  0  0  0  0
   -1.2423   -0.5550    1.0548 C   0  0  0  0  0  0  0  0  0  0  0  0
   -0.8679    0.3654   -0.0687 C   0  0  0  0  0  0  0  0  0  0  0  0
   -1.6491    1.4469   -0.3717 O   0  0  0  0  0  0  0  0  0  0  0  0
    3.1859   -0.8009    0.1807 H   0  0  0  0  0  0  0  0  0  0  0  0
    1.7201    1.5107   -0.1174 H   0  0  0  0  0  0  0  0  0  0  0  0
    1.4640    0.1221    1.0288 H   0  0  0  0  0  0  0  0  0  0  0  0
    0.3526    0.5449   -1.8504 H   0  0  0  0  0  0  0  0  0  0  0  0
   -2.1108   -1.3433   -0.8938 H   0  0  0  0  0  0  0  0  0  0  0  0
   -0.4130   -0.8061    1.7289 H   0  0  0  0  0  0  0  0  0  0  0  0
   -2.2586   -0.3864    1.4795 H   0  0  0  0  0  0  0  0  0  0  0  0
   -1.7538    1.9904    0.4707 H   0  0  0  0  0  0  0  0  0  0  0  0
  1  2  1  0
  2  3  1  0
  3  4  1  0
  4  5  1  0
  5  6  1  0
  6  7  1  0
  7  8  1  0
  7  3  1  0
  7  5  1  0
  1  9  1  0
  2 10  1  0
  2 11  1  0
  3 12  1  0
  5 13  1  0
  6 14  1  0
  6 15  1  0
  8 16  1  0
M  END
