
     RDKit          3D

 19 20  0  0  0  0  0  0  0  0999 V2000
    2.6118    0.7936   -0.0781 O   0  0  0  0  0  0  0  0  0  0  0  0
    1.6488    0.1311    0.6767 C   0  0  0  0  0  0  0  0  0  0  0  0
    0.4928   -0.3426   -0.1636 C   0  0  0  0  0  0  0  0  0  0  0  0
    0.8378   -1.2118   -1.1532 O   0  0  0  0  0  0  0  0  0  0  0  0
   -0.5597   -0.9221    0.8031 C   0  0  0  0  0  0  0  0  0  0  0  0
   -1.5490    0.2213    0.6664 C   0  0  0  0  0  0  0  0  0  0  0  0
   -1.7018    0.3949   -0.8143 C   0  0  0  0  0  0  0  0  0  0  0  0
   -0.2859    0.8629   -0.6104 C   0  0  0  0  0  0  0  0  0  0  0  0
   -0.7289    1.3741    0.6317 O   0  0  0  0  0  0  0  0  0  0  0  0
    3.1756    0.1095   -0.4964 H   0  0  0  0  0  0  0  0  0  0  0  0
    2.1378   -0.6975    1.2458 H   0  0  0  0  0  0  0  0  0  0  0  0
    1.2875    0.8500    1.4401 H   0  0  0  0  0  0  0  0  0  0  0  0
    0.2584   -1.1978   -1.9349 H   0  0  0  0  0  0  0  0  0  0  0  0
   -0.9866   -1.8460    0.3866 H   0  0  0  0  0  0  0  0  0  0  0  0
   -0.1710   -1.0104    1.8173 H   0  0  0  0  0  0  0  0  0  0  0  0
   -2.3999    0.2414    1.3007 H   0  0  0  0  0  0  0  0  0  0  0  0
   -1.8315   -0.5299   -1.3834 H   0  0  0  0  0  0  0  0  0  0  0  0
   -2.3831    1.2286   -1.0357 H   0  0  0  0  0  0  0  0  0  0  0  0
    0.1468    1.5508   -1.2984 H   0  0  0  0  0  0  0  0  0  0  0  0
  1  2  1  0
  2  3  1  0
  3  4  1  0
  3  5  1  0
  5  6  1  0
  6  7  1  0
  7  8  1  0
  8  9  1  0
  8  3  1  0
  9  6  1  0
  1 10  1  0
  2 11  1  0
  2 12  1  0
  4 13  1  0
  5 14  1  0
  5 15  1  0
  6 16  1  0
  7 17  1  0
  7 18  1  0
  8 19  1  0
M  END
