
     RDKit          3D

 19 20  0  0  0  0  0  0  0  0999 V2000
   -2.6923   -0.2053   -0.9199 O   0  0  0  0  0  0  0  0  0  0  0  0
   -1.3823   -0.5395   -0.6160 C   0  0  0  0  0  0  0  0  0  0  0  0
   -0.5534    0.7117   -0.3095 C   0  0  0  0  0  0  0  0  0  0  0  0
    0.8668    0.3636    0.0211 C   0  0  0  0  0  0  0  0  0  0  0  0
    1.3930   -0.9238   -0.5078 C   0  0  0  0  0  0  0  0  0  0  0  0
    2.7173   -1.0567   -0.0918 O   0  0  0  0  0  0  0  0  0  0  0  0
    0.4858    0.4046    1.4703 C   0  0  0  0  0  0  0  0  0  0  0  0
    0.1403    1.6687    1.9113 O   0  0  0  0  0  0  0  0  0  0  0  0
   -0.8061    1.1487    1.0936 C   0  0  0  0  0  0  0  0  0  0  0  0
   -2.8227    0.7713   -0.9280 H   0  0  0  0  0  0  0  0  0  0  0  0
   -1.3867   -1.1319    0.3181 H   0  0  0  0  0  0  0  0  0  0  0  0
   -0.9256   -1.0941   -1.4536 H   0  0  0  0  0  0  0  0  0  0  0  0
   -0.7153    1.4536   -1.0932 H   0  0  0  0  0  0  0  0  0  0  0  0
    1.5893    1.1940   -0.2150 H   0  0  0  0  0  0  0  0  0  0  0  0
    0.8484   -1.8102   -0.1239 H   0  0  0  0  0  0  0  0  0  0  0  0
    1.3641   -0.8665   -1.6265 H   0  0  0  0  0  0  0  0  0  0  0  0
    3.3298   -0.4425   -0.5348 H   0  0  0  0  0  0  0  0  0  0  0  0
    0.2944   -0.4897    2.0510 H   0  0  0  0  0  0  0  0  0  0  0  0
   -1.7449    0.8440    1.5546 H   0  0  0  0  0  0  0  0  0  0  0  0
  1  2  1  0
  2  3  1  0
  3  4  1  0
  4  5  1  0
  5  6  1  0
  4  7  1  0
  7  8  1  0
  8  9  1  0
  9  3  1  0
  9  7  1  0
  1 10  1  0
  2 11  1  0
  2 12  1  0
  3 13  1  0
  4 14  1  0
  5 15  1  0
  5 16  1  0
  6 17  1  0
  7 18  1  0
  9 19  1  0
M  END
