
     RDKit          3D

 18 18  0  0  0  0  0  0  0  0999 V2000
    2.7277   -0.1967   -0.1966 O   0  0  0  0  0  0  0  0  0  0  0  0
    1.6406    0.6221    0.0616 C   0  0  0  0  0  0  0  0  0  0  0  0
    0.3762    0.0558   -0.5775 C   0  0  0  0  0  0  0  0  0  0  0  0
    0.1642   -1.3112    0.0332 C   0  0  0  0  0  0  0  0  0  0  0  0
   -1.2905   -1.3192    0.3178 C   0  0  0  0  0  0  0  0  0  0  0  0
   -1.8509   -0.1331    0.2503 C   0  0  0  0  0  0  0  0  0  0  0  0
   -0.8107    0.8520   -0.0995 C   0  0  0  0  0  0  0  0  0  0  0  0
   -1.3129    1.6970   -1.0888 O   0  0  0  0  0  0  0  0  0  0  0  0
    2.8897   -0.1665   -1.1767 H   0  0  0  0  0  0  0  0  0  0  0  0
    1.8071    1.6111   -0.3792 H   0  0  0  0  0  0  0  0  0  0  0  0
    1.5077    0.7345    1.1537 H   0  0  0  0  0  0  0  0  0  0  0  0
    0.4987    0.0365   -1.6592 H   0  0  0  0  0  0  0  0  0  0  0  0
    0.7110   -1.4176    0.9997 H   0  0  0  0  0  0  0  0  0  0  0  0
    0.4304   -2.1291   -0.6673 H   0  0  0  0  0  0  0  0  0  0  0  0
   -1.7956   -2.2714    0.5581 H   0  0  0  0  0  0  0  0  0  0  0  0
   -2.8924    0.0740    0.4225 H   0  0  0  0  0  0  0  0  0  0  0  0
   -0.5098    1.4911    0.7516 H   0  0  0  0  0  0  0  0  0  0  0  0
   -2.2905    1.7705   -0.9196 H   0  0  0  0  0  0  0  0  0  0  0  0
  1  2  1  0
  2  3  1  0
  3  4  1  0
  4  5  1  0
  5  6  2  0
  6  7  1  0
  7  8  1  0
  7  3  1  0
  1  9  1  0
  2 10  1  0
  2 11  1  0
  3 12  1  0
  4 13  1  0
  4 14  1  0
  5 15  1  0
  6 16  1  0
  7 17  1  0
  8 18  1  0
M  END
