
     RDKit          3D

 19 20  0  0  0  0  0  0  0  0999 V2000
    2.7278    0.4215   -0.4438 O   0  0  0  0  0  0  0  0  0  0  0  0
    1.6274   -0.3077   -0.9016 C   0  0  0  0  0  0  0  0  0  0  0  0
    0.5199   -0.1242    0.1096 C   0  0  0  0  0  0  0  0  0  0  0  0
    0.9918   -0.6123    1.3278 O   0  0  0  0  0  0  0  0  0  0  0  0
    0.1023    1.2873    0.1750 C   0  0  0  0  0  0  0  0  0  0  0  0
   -1.1830    1.4340   -0.1280 C   0  0  0  0  0  0  0  0  0  0  0  0
   -1.7568    0.1058   -0.4307 C   0  0  0  0  0  0  0  0  0  0  0  0
   -1.8276   -0.8199    0.7581 C   0  0  0  0  0  0  0  0  0  0  0  0
   -0.7181   -0.9090   -0.2343 C   0  0  0  0  0  0  0  0  0  0  0  0
    3.2808   -0.1125    0.1791 H   0  0  0  0  0  0  0  0  0  0  0  0
    1.3549    0.1315   -1.8979 H   0  0  0  0  0  0  0  0  0  0  0  0
    1.9104   -1.3485   -1.0492 H   0  0  0  0  0  0  0  0  0  0  0  0
    1.2929    0.1574    1.8680 H   0  0  0  0  0  0  0  0  0  0  0  0
    0.7396    2.1131    0.4331 H   0  0  0  0  0  0  0  0  0  0  0  0
   -1.7284    2.3505   -0.1539 H   0  0  0  0  0  0  0  0  0  0  0  0
   -2.4757   -0.0184   -1.2632 H   0  0  0  0  0  0  0  0  0  0  0  0
   -1.5756   -0.4411    1.7646 H   0  0  0  0  0  0  0  0  0  0  0  0
   -2.6817   -1.5036    0.7452 H   0  0  0  0  0  0  0  0  0  0  0  0
   -0.6009   -1.8039   -0.8578 H   0  0  0  0  0  0  0  0  0  0  0  0
  1  2  1  0
  2  3  1  0
  3  4  1  0
  3  5  1  0
  5  6  2  0
  6  7  1  0
  7  8  1  0
  8  9  1  0
  9  3  1  0
  9  7  1  0
  1 10  1  0
  2 11  1  0
  2 12  1  0
  4 13  1  0
  5 14  1  0
  6 15  1  0
  7 16  1  0
  8 17  1  0
  8 18  1  0
  9 19  1  0
M  END
