
     RDKit          3D

 18 19  0  0  0  0  0  0  0  0999 V2000
    2.4788    1.3090    0.2278 O   0  0  0  0  0  0  0  0  0  0  0  0
    1.1550    1.2350   -0.1545 C   0  0  0  0  0  0  0  0  0  0  0  0
    0.5364   -0.1209    0.1163 C   0  0  0  0  0  0  0  0  0  0  0  0
   -0.7232   -0.3727   -0.6810 C   0  0  0  0  0  0  0  0  0  0  0  0
   -1.8772    0.5566   -0.4889 C   0  0  0  0  0  0  0  0  0  0  0  0
   -1.9496   -0.8911   -0.0451 C   0  0  0  0  0  0  0  0  0  0  0  0
    1.4175   -1.2010    0.4662 C   0  0  0  0  0  0  0  0  0  0  0  0
    0.5593   -0.4727    1.4637 O   0  0  0  0  0  0  0  0  0  0  0  0
    2.5338    0.9488    1.1517 H   0  0  0  0  0  0  0  0  0  0  0  0
    1.0491    1.4281   -1.2433 H   0  0  0  0  0  0  0  0  0  0  0  0
    0.5699    2.0082    0.4021 H   0  0  0  0  0  0  0  0  0  0  0  0
   -0.5174   -0.7485   -1.7229 H   0  0  0  0  0  0  0  0  0  0  0  0
   -2.4438    0.8922   -1.3669 H   0  0  0  0  0  0  0  0  0  0  0  0
   -1.7584    1.3247    0.3052 H   0  0  0  0  0  0  0  0  0  0  0  0
   -1.9855   -1.1147    1.0466 H   0  0  0  0  0  0  0  0  0  0  0  0
   -2.6496   -1.4900   -0.6802 H   0  0  0  0  0  0  0  0  0  0  0  0
    2.4946   -1.0344    0.6752 H   0  0  0  0  0  0  0  0  0  0  0  0
    1.1103   -2.2566    0.5280 H   0  0  0  0  0  0  0  0  0  0  0  0
  1  2  1  0
  2  3  1  0
  3  4  1  0
  4  5  1  0
  5  6  1  0
  3  7  1  0
  7  8  1  0
  8  3  1  0
  6  4  1  0
  1  9  1  0
  2 10  1  0
  2 11  1  0
  4 12  1  0
  5 13  1  0
  5 14  1  0
  6 15  1  0
  6 16  1  0
  7 17  1  0
  7 18  1  0
M  END
