
     RDKit          3D

 19 20  0  0  0  0  0  0  0  0999 V2000
    2.8404    0.3508    0.1079 O   0  0  0  0  0  0  0  0  0  0  0  0
    1.9815   -0.4659    0.7979 C   0  0  0  0  0  0  0  0  0  0  0  0
    0.5431   -0.3026    0.4046 C   0  0  0  0  0  0  0  0  0  0  0  0
    0.2652   -0.5826   -1.0360 C   0  0  0  0  0  0  0  0  0  0  0  0
   -1.2564   -0.6273   -1.1431 C   0  0  0  0  0  0  0  0  0  0  0  0
   -1.8871    0.4809   -1.6514 O   0  0  0  0  0  0  0  0  0  0  0  0
   -1.9447    0.2265   -0.2765 C   0  0  0  0  0  0  0  0  0  0  0  0
   -1.2280    1.1152    0.6675 C   0  0  0  0  0  0  0  0  0  0  0  0
    0.1464    1.0141    0.6423 O   0  0  0  0  0  0  0  0  0  0  0  0
    2.5334    1.2866    0.0672 H   0  0  0  0  0  0  0  0  0  0  0  0
    2.3145   -1.5135    0.6549 H   0  0  0  0  0  0  0  0  0  0  0  0
    2.0596   -0.2093    1.8750 H   0  0  0  0  0  0  0  0  0  0  0  0
   -0.0609   -0.9745    1.0560 H   0  0  0  0  0  0  0  0  0  0  0  0
    0.6426    0.3056   -1.6182 H   0  0  0  0  0  0  0  0  0  0  0  0
    0.7219   -1.5013   -1.4167 H   0  0  0  0  0  0  0  0  0  0  0  0
   -1.6472   -1.6502   -1.3899 H   0  0  0  0  0  0  0  0  0  0  0  0
   -3.0004   -0.0199    0.0429 H   0  0  0  0  0  0  0  0  0  0  0  0
   -1.4706    2.2053    0.5132 H   0  0  0  0  0  0  0  0  0  0  0  0
   -1.5534    0.8620    1.7024 H   0  0  0  0  0  0  0  0  0  0  0  0
  1  2  1  0
  2  3  1  0
  3  4  1  0
  4  5  1  0
  5  6  1  0
  6  7  1  0
  7  8  1  0
  8  9  1  0
  9  3  1  0
  7  5  1  0
  1 10  1  0
  2 11  1  0
  2 12  1  0
  3 13  1  0
  4 14  1  0
  4 15  1  0
  5 16  1  0
  7 17  1  0
  8 18  1  0
  8 19  1  0
M  END
