
     RDKit          3D

 20 20  0  0  0  0  0  0  0  0999 V2000
   -1.6144    0.1985    1.3643 O   0  0  0  0  0  0  0  0  0  0  0  0
   -1.8998    0.2869    0.0322 C   0  0  0  0  0  0  0  0  0  0  0  0
   -0.7068    0.2766   -0.8737 C   0  0  0  0  0  0  0  0  0  0  0  0
    0.1740    1.4193   -0.5615 C   0  0  0  0  0  0  0  0  0  0  0  0
    1.2742    1.2738    0.1224 C   0  0  0  0  0  0  0  0  0  0  0  0
    1.7551   -0.0050    0.6481 C   0  0  0  0  0  0  0  0  0  0  0  0
    0.8458   -1.1640    0.4414 C   0  0  0  0  0  0  0  0  0  0  0  0
    0.0818   -0.9793   -0.8539 C   0  0  0  0  0  0  0  0  0  0  0  0
   -2.0765   -0.5542    1.8096 H   0  0  0  0  0  0  0  0  0  0  0  0
   -2.6004   -0.5465   -0.2310 H   0  0  0  0  0  0  0  0  0  0  0  0
   -2.4703    1.2192   -0.1578 H   0  0  0  0  0  0  0  0  0  0  0  0
   -1.1106    0.3935   -1.9222 H   0  0  0  0  0  0  0  0  0  0  0  0
   -0.1722    2.3926   -0.9500 H   0  0  0  0  0  0  0  0  0  0  0  0
    1.8952    2.1764    0.3247 H   0  0  0  0  0  0  0  0  0  0  0  0
    2.7367   -0.2626    0.1594 H   0  0  0  0  0  0  0  0  0  0  0  0
    1.9247    0.1132    1.7419 H   0  0  0  0  0  0  0  0  0  0  0  0
    0.1721   -1.3431    1.3010 H   0  0  0  0  0  0  0  0  0  0  0  0
    1.4489   -2.0876    0.3291 H   0  0  0  0  0  0  0  0  0  0  0  0
   -0.5088   -1.8913   -1.0712 H   0  0  0  0  0  0  0  0  0  0  0  0
    0.8513   -0.9166   -1.6530 H   0  0  0  0  0  0  0  0  0  0  0  0
  1  2  1  0
  2  3  1  0
  3  4  1  0
  4  5  2  0
  5  6  1  0
  6  7  1  0
  7  8  1  0
  8  3  1  0
  1  9  1  0
  2 10  1  0
  2 11  1  0
  3 12  1  0
  4 13  1  0
  5 14  1  0
  6 15  1  0
  6 16  1  0
  7 17  1  0
  7 18  1  0
  8 19  1  0
  8 20  1  0
M  END
