
     RDKit          3D

 18 19  0  0  0  0  0  0  0  0999 V2000
    2.3801    0.5415   -0.3472 O   0  0  0  0  0  0  0  0  0  0  0  0
    1.5415    0.0894    0.6599 C   0  0  0  0  0  0  0  0  0  0  0  0
    0.1409    0.4237    0.3174 C   0  0  0  0  0  0  0  0  0  0  0  0
   -0.9173    0.0083    1.2999 C   0  0  0  0  0  0  0  0  0  0  0  0
   -1.6325   -1.0112    0.7502 O   0  0  0  0  0  0  0  0  0  0  0  0
   -1.4146   -1.0763   -0.5938 C   0  0  0  0  0  0  0  0  0  0  0  0
   -0.3112   -0.1868   -0.9920 C   0  0  0  0  0  0  0  0  0  0  0  0
   -0.2925    1.2671   -0.7893 C   0  0  0  0  0  0  0  0  0  0  0  0
    2.9947   -0.1460   -0.6783 H   0  0  0  0  0  0  0  0  0  0  0  0
    1.6216   -1.0381    0.6389 H   0  0  0  0  0  0  0  0  0  0  0  0
    1.8727    0.3910    1.6644 H   0  0  0  0  0  0  0  0  0  0  0  0
   -1.6170    0.8880    1.4128 H   0  0  0  0  0  0  0  0  0  0  0  0
   -0.4831   -0.2072    2.3001 H   0  0  0  0  0  0  0  0  0  0  0  0
   -1.1389   -2.1349   -0.8334 H   0  0  0  0  0  0  0  0  0  0  0  0
   -2.3755   -0.9077   -1.1547 H   0  0  0  0  0  0  0  0  0  0  0  0
    0.4394   -0.5922   -1.6967 H   0  0  0  0  0  0  0  0  0  0  0  0
   -1.2641    1.8270   -0.6493 H   0  0  0  0  0  0  0  0  0  0  0  0
    0.4559    1.8644   -1.3088 H   0  0  0  0  0  0  0  0  0  0  0  0
  1  2  1  0
  2  3  1  0
  3  4  1  0
  4  5  1  0
  5  6  1  0
  6  7  1  0
  7  8  1  0
  7  3  1  0
  8  3  1  0
  1  9  1  0
  2 10  1  0
  2 11  1  0
  4 12  1  0
  4 13  1  0
  6 14  1  0
  6 15  1  0
  7 16  1  0
  8 17  1  0
  8 18  1  0
M  END
