
     RDKit          3D

 18 19  0  0  0  0  0  0  0  0999 V2000
   -2.4960    0.5328    1.1478 O   0  0  0  0  0  0  0  0  0  0  0  0
   -1.7214    0.7674    0.0240 C   0  0  0  0  0  0  0  0  0  0  0  0
   -0.6632   -0.3372   -0.1499 C   0  0  0  0  0  0  0  0  0  0  0  0
   -1.3192   -1.5885   -0.2921 O   0  0  0  0  0  0  0  0  0  0  0  0
    0.4635   -0.1488   -0.9889 C   0  0  0  0  0  0  0  0  0  0  0  0
    1.9144   -0.5769   -0.7356 C   0  0  0  0  0  0  0  0  0  0  0  0
    1.7781    0.6143    0.2452 C   0  0  0  0  0  0  0  0  0  0  0  0
    0.5291   -0.1968    0.5999 C   0  0  0  0  0  0  0  0  0  0  0  0
   -3.4579    0.4550    0.8930 H   0  0  0  0  0  0  0  0  0  0  0  0
   -2.3703    0.7507   -0.8801 H   0  0  0  0  0  0  0  0  0  0  0  0
   -1.2370    1.7543    0.1505 H   0  0  0  0  0  0  0  0  0  0  0  0
   -1.6144   -1.9422    0.5731 H   0  0  0  0  0  0  0  0  0  0  0  0
    0.5367    0.9073   -1.4076 H   0  0  0  0  0  0  0  0  0  0  0  0
    2.5636   -0.3902   -1.5821 H   0  0  0  0  0  0  0  0  0  0  0  0
    2.0266   -1.5316   -0.2113 H   0  0  0  0  0  0  0  0  0  0  0  0
    1.5885    1.5569   -0.2699 H   0  0  0  0  0  0  0  0  0  0  0  0
    2.5639    0.5648    0.9856 H   0  0  0  0  0  0  0  0  0  0  0  0
    0.9149   -1.1912    1.0006 H   0  0  0  0  0  0  0  0  0  0  0  0
  1  2  1  0
  2  3  1  0
  3  4  1  0
  3  5  1  0
  5  6  1  0
  6  7  1  0
  7  8  1  0
  8  3  1  0
  8  5  1  0
  1  9  1  0
  2 10  1  0
  2 11  1  0
  4 12  1  0
  5 13  1  0
  6 14  1  0
  6 15  1  0
  7 16  1  0
  7 17  1  0
  8 18  1  0
M  END
