
     RDKit          3D

 19 20  0  0  0  0  0  0  0  0999 V2000
   -2.5783    0.8558    0.4012 O   0  0  0  0  0  0  0  0  0  0  0  0
   -1.6295    0.1909   -0.4008 C   0  0  0  0  0  0  0  0  0  0  0  0
   -0.5400   -0.4077    0.4631 C   0  0  0  0  0  0  0  0  0  0  0  0
    0.0991    0.6406    1.1885 C   0  0  0  0  0  0  0  0  0  0  0  0
    1.1135    1.1168    0.4765 C   0  0  0  0  0  0  0  0  0  0  0  0
    1.1177    0.2923   -0.7989 C   0  0  0  0  0  0  0  0  0  0  0  0
    2.4805    0.2917   -1.2032 O   0  0  0  0  0  0  0  0  0  0  0  0
    0.7588   -0.9843   -0.1673 C   0  0  0  0  0  0  0  0  0  0  0  0
   -0.3310   -1.7743    0.1794 C   0  0  0  0  0  0  0  0  0  0  0  0
   -2.6780    1.7694    0.0391 H   0  0  0  0  0  0  0  0  0  0  0  0
   -1.3093    0.7915   -1.2411 H   0  0  0  0  0  0  0  0  0  0  0  0
   -2.2124   -0.6496   -0.8285 H   0  0  0  0  0  0  0  0  0  0  0  0
   -0.0926    1.0959    2.1785 H   0  0  0  0  0  0  0  0  0  0  0  0
    1.8095    1.9124    0.7067 H   0  0  0  0  0  0  0  0  0  0  0  0
    0.5902    0.6936   -1.6195 H   0  0  0  0  0  0  0  0  0  0  0  0
    2.9836    0.1247   -0.3496 H   0  0  0  0  0  0  0  0  0  0  0  0
    1.6244   -1.1808    0.5734 H   0  0  0  0  0  0  0  0  0  0  0  0
   -0.3605   -2.4658    1.0698 H   0  0  0  0  0  0  0  0  0  0  0  0
   -0.8458   -2.3130   -0.6673 H   0  0  0  0  0  0  0  0  0  0  0  0
  1  2  1  0
  2  3  1  0
  3  4  1  0
  4  5  2  0
  5  6  1  0
  6  7  1  0
  6  8  1  0
  8  9  1  0
  8  3  1  0
  9  3  1  0
  1 10  1  0
  2 11  1  0
  2 12  1  0
  4 13  1  0
  5 14  1  0
  6 15  1  0
  7 16  1  0
  8 17  1  0
  9 18  1  0
  9 19  1  0
M  END
