
     RDKit          3D

 21 22  0  0  0  0  0  0  0  0999 V2000
   -3.9059    0.1837    0.0170 O   0  0  0  0  0  0  0  0  0  0  0  0
   -2.6492    0.7314    0.2500 C   0  0  0  0  0  0  0  0  0  0  0  0
   -1.5996    0.1894   -0.6981 C   0  0  0  0  0  0  0  0  0  0  0  0
   -1.3198   -1.2874   -0.7083 C   0  0  0  0  0  0  0  0  0  0  0  0
   -0.3569   -0.2985   -0.0346 C   0  0  0  0  0  0  0  0  0  0  0  0
    0.8634   -0.2130   -0.7008 O   0  0  0  0  0  0  0  0  0  0  0  0
    1.8774   -0.1950    0.2221 C   0  0  0  0  0  0  0  0  0  0  0  0
    2.9322    0.8709   -0.0471 C   0  0  0  0  0  0  0  0  0  0  0  0
    3.2699   -0.5528   -0.1336 C   0  0  0  0  0  0  0  0  0  0  0  0
   -4.3529    0.7898   -0.6365 H   0  0  0  0  0  0  0  0  0  0  0  0
   -2.3912    0.5314    1.2927 H   0  0  0  0  0  0  0  0  0  0  0  0
   -2.6485    1.8454    0.1163 H   0  0  0  0  0  0  0  0  0  0  0  0
   -1.5089    0.7578   -1.6557 H   0  0  0  0  0  0  0  0  0  0  0  0
   -1.9121   -1.9167    0.0073 H   0  0  0  0  0  0  0  0  0  0  0  0
   -1.0631   -1.6948   -1.6876 H   0  0  0  0  0  0  0  0  0  0  0  0
   -0.3146   -0.3361    1.0713 H   0  0  0  0  0  0  0  0  0  0  0  0
    1.5951   -0.2474    1.2837 H   0  0  0  0  0  0  0  0  0  0  0  0
    3.3191    1.4732    0.7883 H   0  0  0  0  0  0  0  0  0  0  0  0
    2.8835    1.4305   -1.0136 H   0  0  0  0  0  0  0  0  0  0  0  0
    3.3870   -1.0976   -1.0911 H   0  0  0  0  0  0  0  0  0  0  0  0
    3.8951   -0.9641    0.6817 H   0  0  0  0  0  0  0  0  0  0  0  0
  1  2  1  0
  2  3  1  0
  3  4  1  0
  4  5  1  0
  5  6  1  0
  6  7  1  0
  7  8  1  0
  8  9  1  0
  5  3  1  0
  9  7  1  0
  1 10  1  0
  2 11  1  0
  2 12  1  0
  3 13  1  0
  4 14  1  0
  4 15  1  0
  5 16  1  0
  7 17  1  0
  8 18  1  0
  8 19  1  0
  9 20  1  0
  9 21  1  0
M  END
