
     RDKit          3D

 23 24  0  0  0  0  0  0  0  0999 V2000
   -2.8894    0.8992    0.6281 O   0  0  0  0  0  0  0  0  0  0  0  0
   -1.6260    1.1247    0.0744 C   0  0  0  0  0  0  0  0  0  0  0  0
   -0.9126   -0.2105    0.0009 C   0  0  0  0  0  0  0  0  0  0  0  0
    0.4700   -0.2256   -0.5624 C   0  0  0  0  0  0  0  0  0  0  0  0
    1.4544    0.6032    0.1662 C   0  0  0  0  0  0  0  0  0  0  0  0
    2.8774    0.6756   -0.2938 C   0  0  0  0  0  0  0  0  0  0  0  0
    2.5534   -0.1885    0.8793 C   0  0  0  0  0  0  0  0  0  0  0  0
   -1.3934   -1.2590    0.9270 C   0  0  0  0  0  0  0  0  0  0  0  0
   -1.8056   -1.3569   -0.5120 C   0  0  0  0  0  0  0  0  0  0  0  0
   -3.3392    1.7785    0.7832 H   0  0  0  0  0  0  0  0  0  0  0  0
   -1.0584    1.8576    0.6691 H   0  0  0  0  0  0  0  0  0  0  0  0
   -1.8131    1.5430   -0.9457 H   0  0  0  0  0  0  0  0  0  0  0  0
    0.8123   -1.2778   -0.5940 H   0  0  0  0  0  0  0  0  0  0  0  0
    0.4318    0.1428   -1.6191 H   0  0  0  0  0  0  0  0  0  0  0  0
    1.1230    1.5267    0.7157 H   0  0  0  0  0  0  0  0  0  0  0  0
    3.4824    1.5920   -0.0764 H   0  0  0  0  0  0  0  0  0  0  0  0
    3.1099    0.1794   -1.2414 H   0  0  0  0  0  0  0  0  0  0  0  0
    2.6116   -1.2764    0.7187 H   0  0  0  0  0  0  0  0  0  0  0  0
    2.8210    0.1160    1.9080 H   0  0  0  0  0  0  0  0  0  0  0  0
   -0.5816   -1.9440    1.3010 H   0  0  0  0  0  0  0  0  0  0  0  0
   -2.1857   -0.9901    1.6527 H   0  0  0  0  0  0  0  0  0  0  0  0
   -2.8290   -1.1313   -0.8083 H   0  0  0  0  0  0  0  0  0  0  0  0
   -1.3134   -2.1784   -1.0680 H   0  0  0  0  0  0  0  0  0  0  0  0
  1  2  1  0
  2  3  1  0
  3  4  1  0
  4  5  1  0
  5  6  1  0
  6  7  1  0
  3  8  1  0
  8  9  1  0
  9  3  1  0
  7  5  1  0
  1 10  1  0
  2 11  1  0
  2 12  1  0
  4 13  1  0
  4 14  1  0
  5 15  1  0
  6 16  1  0
  6 17  1  0
  7 18  1  0
  7 19  1  0
  8 20  1  0
  8 21  1  0
  9 22  1  0
  9 23  1  0
M  END
