
     RDKit          3D

 25 25  0  0  0  0  0  0  0  0999 V2000
    3.2358   -1.0266   -0.2819 O   0  0  0  0  0  0  0  0  0  0  0  0
    2.5208    0.0932    0.0621 C   0  0  0  0  0  0  0  0  0  0  0  0
    1.1039    0.0939   -0.4778 C   0  0  0  0  0  0  0  0  0  0  0  0
    0.4433    1.3831   -0.0196 C   0  0  0  0  0  0  0  0  0  0  0  0
   -0.9971    1.4531   -0.4043 C   0  0  0  0  0  0  0  0  0  0  0  0
   -1.8665    0.6483    0.5180 C   0  0  0  0  0  0  0  0  0  0  0  0
   -2.1004   -0.7575    0.0464 C   0  0  0  0  0  0  0  0  0  0  0  0
   -0.9332   -1.2640   -0.8046 C   0  0  0  0  0  0  0  0  0  0  0  0
    0.3564   -1.1271   -0.0404 C   0  0  0  0  0  0  0  0  0  0  0  0
    2.8234   -1.5649   -1.0018 H   0  0  0  0  0  0  0  0  0  0  0  0
    3.0044    1.0344   -0.3100 H   0  0  0  0  0  0  0  0  0  0  0  0
    2.5133    0.1763    1.1676 H   0  0  0  0  0  0  0  0  0  0  0  0
    1.1035    0.1256   -1.5858 H   0  0  0  0  0  0  0  0  0  0  0  0
    0.9769    2.2048   -0.5624 H   0  0  0  0  0  0  0  0  0  0  0  0
    0.5447    1.5497    1.0626 H   0  0  0  0  0  0  0  0  0  0  0  0
   -1.1410    1.2273   -1.4690 H   0  0  0  0  0  0  0  0  0  0  0  0
   -1.3151    2.5297   -0.2780 H   0  0  0  0  0  0  0  0  0  0  0  0
   -2.8582    1.1614    0.6753 H   0  0  0  0  0  0  0  0  0  0  0  0
   -1.3576    0.6051    1.5042 H   0  0  0  0  0  0  0  0  0  0  0  0
   -2.1399   -1.4545    0.9274 H   0  0  0  0  0  0  0  0  0  0  0  0
   -3.0001   -0.8548   -0.5771 H   0  0  0  0  0  0  0  0  0  0  0  0
   -1.1232   -2.3493   -0.9632 H   0  0  0  0  0  0  0  0  0  0  0  0
   -0.9011   -0.7732   -1.7884 H   0  0  0  0  0  0  0  0  0  0  0  0
    0.1195   -1.1069    1.0437 H   0  0  0  0  0  0  0  0  0  0  0  0
    0.9874   -2.0072   -0.2204 H   0  0  0  0  0  0  0  0  0  0  0  0
  1  2  1  0
  2  3  1  0
  3  4  1  0
  4  5  1  0
  5  6  1  0
  6  7  1  0
  7  8  1  0
  8  9  1  0
  9  3  1  0
  1 10  1  0
  2 11  1  0
  2 12  1  0
  3 13  1  0
  4 14  1  0
  4 15  1  0
  5 16  1  0
  5 17  1  0
  6 18  1  0
  6 19  1  0
  7 20  1  0
  7 21  1  0
  8 22  1  0
  8 23  1  0
  9 24  1  0
  9 25  1  0
M  END
