
     RDKit          3D

 17 17  0  0  0  0  0  0  0  0999 V2000
   -2.3771   -1.5427   -0.4408 O   0  0  0  0  0  0  0  0  0  0  0  0
   -1.9506   -0.2636   -0.1874 C   0  0  0  0  0  0  0  0  0  0  0  0
   -0.5011   -0.0319   -0.4961 C   0  0  0  0  0  0  0  0  0  0  0  0
   -0.0534    1.4055   -0.2031 C   0  0  0  0  0  0  0  0  0  0  0  0
    0.5073    0.2158    0.5384 C   0  0  0  0  0  0  0  0  0  0  0  0
    1.9463   -0.0591    0.2767 C   0  0  0  0  0  0  0  0  0  0  0  0
    2.2015   -1.3921   -0.0373 O   0  0  0  0  0  0  0  0  0  0  0  0
   -3.1541   -1.7169    0.1747 H   0  0  0  0  0  0  0  0  0  0  0  0
   -2.1186    0.0001    0.8822 H   0  0  0  0  0  0  0  0  0  0  0  0
   -2.5286    0.5083   -0.7670 H   0  0  0  0  0  0  0  0  0  0  0  0
   -0.1197   -0.4849   -1.4465 H   0  0  0  0  0  0  0  0  0  0  0  0
    0.5477    1.8804   -0.9957 H   0  0  0  0  0  0  0  0  0  0  0  0
   -0.7185    2.0601    0.3709 H   0  0  0  0  0  0  0  0  0  0  0  0
    0.2077    0.1144    1.6194 H   0  0  0  0  0  0  0  0  0  0  0  0
    2.3456    0.5610   -0.5565 H   0  0  0  0  0  0  0  0  0  0  0  0
    2.5605    0.2164    1.1683 H   0  0  0  0  0  0  0  0  0  0  0  0
    3.2050   -1.4709   -0.0860 H   0  0  0  0  0  0  0  0  0  0  0  0
  1  2  1  0
  2  3  1  0
  3  4  1  0
  4  5  1  0
  5  6  1  0
  6  7  1  0
  5  3  1  0
  1  8  1  0
  2  9  1  0
  2 10  1  0
  3 11  1  0
  4 12  1  0
  4 13  1  0
  5 14  1  0
  6 15  1  0
  6 16  1  0
  7 17  1  0
M  END
