
     RDKit          3D

 16 17  0  0  0  0  0  0  0  0999 V2000
    1.8228   -0.0953    0.8381 O   0  0  0  0  0  0  0  0  0  0  0  0
    1.0315   -1.0487    0.1764 C   0  0  0  0  0  0  0  0  0  0  0  0
   -0.0082   -0.3012   -0.6282 C   0  0  0  0  0  0  0  0  0  0  0  0
    0.3897    0.5806   -1.6050 O   0  0  0  0  0  0  0  0  0  0  0  0
    0.1687    1.6195   -0.7371 C   0  0  0  0  0  0  0  0  0  0  0  0
   -0.7164    0.8305    0.1528 C   0  0  0  0  0  0  0  0  0  0  0  0
   -1.4313   -0.3898   -0.2494 C   0  0  0  0  0  0  0  0  0  0  0  0
   -1.7037   -1.3821    0.7046 O   0  0  0  0  0  0  0  0  0  0  0  0
    2.7712   -0.1521    0.5921 H   0  0  0  0  0  0  0  0  0  0  0  0
    0.5142   -1.7214    0.8609 H   0  0  0  0  0  0  0  0  0  0  0  0
    1.7116   -1.6269   -0.4586 H   0  0  0  0  0  0  0  0  0  0  0  0
   -0.3204    2.4706   -1.2878 H   0  0  0  0  0  0  0  0  0  0  0  0
    1.1252    1.9412   -0.2657 H   0  0  0  0  0  0  0  0  0  0  0  0
   -0.4769    0.9103    1.2395 H   0  0  0  0  0  0  0  0  0  0  0  0
   -2.2418   -0.3087   -1.0053 H   0  0  0  0  0  0  0  0  0  0  0  0
   -2.6362   -1.3264    1.0340 H   0  0  0  0  0  0  0  0  0  0  0  0
  1  2  1  0
  2  3  1  0
  3  4  1  0
  4  5  1  0
  5  6  1  0
  6  7  1  0
  7  8  1  0
  6  3  1  0
  7  3  1  0
  1  9  1  0
  2 10  1  0
  2 11  1  0
  5 12  1  0
  5 13  1  0
  6 14  1  0
  7 15  1  0
  8 16  1  0
M  END
