
     RDKit          3D

 17 17  0  0  0  0  0  0  0  0999 V2000
    2.6406   -0.2182    0.0065 O   0  0  0  0  0  0  0  0  0  0  0  0
    1.5347    0.5664   -0.2025 C   0  0  0  0  0  0  0  0  0  0  0  0
    0.3361    0.2221    0.6095 C   0  0  0  0  0  0  0  0  0  0  0  0
   -0.2533   -1.1339    0.4681 C   0  0  0  0  0  0  0  0  0  0  0  0
   -0.9636   -0.6201   -0.7594 C   0  0  0  0  0  0  0  0  0  0  0  0
   -0.9323    0.7320   -0.0582 C   0  0  0  0  0  0  0  0  0  0  0  0
   -1.9549    0.8438    0.8701 O   0  0  0  0  0  0  0  0  0  0  0  0
    2.5418   -1.1618   -0.1736 H   0  0  0  0  0  0  0  0  0  0  0  0
    1.3089    0.5508   -1.2917 H   0  0  0  0  0  0  0  0  0  0  0  0
    1.8177    1.6139    0.0330 H   0  0  0  0  0  0  0  0  0  0  0  0
    0.3746    0.5923    1.6599 H   0  0  0  0  0  0  0  0  0  0  0  0
   -1.0019   -1.3185    1.2717 H   0  0  0  0  0  0  0  0  0  0  0  0
    0.4240   -1.9826    0.3203 H   0  0  0  0  0  0  0  0  0  0  0  0
   -2.0053   -0.9654   -0.8876 H   0  0  0  0  0  0  0  0  0  0  0  0
   -0.3394   -0.5978   -1.6590 H   0  0  0  0  0  0  0  0  0  0  0  0
   -0.7926    1.5935   -0.7075 H   0  0  0  0  0  0  0  0  0  0  0  0
   -2.7351    1.2835    0.5005 H   0  0  0  0  0  0  0  0  0  0  0  0
  1  2  1  0
  2  3  1  0
  3  4  1  0
  4  5  1  0
  5  6  1  0
  6  7  1  0
  6  3  1  0
  1  8  1  0
  2  9  1  0
  2 10  1  0
  3 11  1  0
  4 12  1  0
  4 13  1  0
  5 14  1  0
  5 15  1  0
  6 16  1  0
  7 17  1  0
M  END
