
     RDKit          3D

 18 18  0  0  0  0  0  0  0  0999 V2000
    2.6185    0.0191    0.6924 O   0  0  0  0  0  0  0  0  0  0  0  0
    1.9716    0.2244   -0.4966 C   0  0  0  0  0  0  0  0  0  0  0  0
    0.4730    0.2228   -0.3842 C   0  0  0  0  0  0  0  0  0  0  0  0
   -0.0840   -1.0871    0.0970 C   0  0  0  0  0  0  0  0  0  0  0  0
   -1.5835   -0.9144    0.2362 C   0  0  0  0  0  0  0  0  0  0  0  0
   -2.0485    0.2905   -0.1756 O   0  0  0  0  0  0  0  0  0  0  0  0
   -1.3463    1.3977    0.1605 C   0  0  0  0  0  0  0  0  0  0  0  0
   -0.0153    1.2013    0.4613 O   0  0  0  0  0  0  0  0  0  0  0  0
    2.0913   -0.3503    1.4166 H   0  0  0  0  0  0  0  0  0  0  0  0
    2.2991    1.1543   -0.9648 H   0  0  0  0  0  0  0  0  0  0  0  0
    2.2444   -0.6130   -1.1803 H   0  0  0  0  0  0  0  0  0  0  0  0
    0.0422    0.4137   -1.3871 H   0  0  0  0  0  0  0  0  0  0  0  0
    0.3123   -1.2973    1.1044 H   0  0  0  0  0  0  0  0  0  0  0  0
    0.1960   -1.8695   -0.6237 H   0  0  0  0  0  0  0  0  0  0  0  0
   -2.0445   -1.6985   -0.4359 H   0  0  0  0  0  0  0  0  0  0  0  0
   -1.9347   -1.1975    1.2606 H   0  0  0  0  0  0  0  0  0  0  0  0
   -1.3550    2.0794   -0.7429 H   0  0  0  0  0  0  0  0  0  0  0  0
   -1.8366    2.0242    0.9621 H   0  0  0  0  0  0  0  0  0  0  0  0
  1  2  1  0
  2  3  1  0
  3  4  1  0
  4  5  1  0
  5  6  1  0
  6  7  1  0
  7  8  1  0
  8  3  1  0
  1  9  1  0
  2 10  1  0
  2 11  1  0
  3 12  1  0
  4 13  1  0
  4 14  1  0
  5 15  1  0
  5 16  1  0
  7 17  1  0
  7 18  1  0
M  END
