
     RDKit          3D

 19 20  0  0  0  0  0  0  0  0999 V2000
   -3.1071   -0.2561    0.8478 O   0  0  0  0  0  0  0  0  0  0  0  0
   -2.3510   -0.4167   -0.3228 C   0  0  0  0  0  0  0  0  0  0  0  0
   -0.9244   -0.1031   -0.0365 C   0  0  0  0  0  0  0  0  0  0  0  0
   -0.2313    0.8568   -0.6385 C   0  0  0  0  0  0  0  0  0  0  0  0
    1.1521    0.9286   -0.1477 C   0  0  0  0  0  0  0  0  0  0  0  0
    2.0716   -0.2205   -0.1820 C   0  0  0  0  0  0  0  0  0  0  0  0
    3.4205    0.0586    0.0269 O   0  0  0  0  0  0  0  0  0  0  0  0
    1.1806   -0.0642    0.9836 C   0  0  0  0  0  0  0  0  0  0  0  0
   -0.1036   -0.8241    0.9557 C   0  0  0  0  0  0  0  0  0  0  0  0
   -3.2952    0.7042    0.9863 H   0  0  0  0  0  0  0  0  0  0  0  0
   -2.7597    0.2542   -1.1021 H   0  0  0  0  0  0  0  0  0  0  0  0
   -2.4956   -1.4681   -0.6354 H   0  0  0  0  0  0  0  0  0  0  0  0
   -0.6359    1.5116   -1.4024 H   0  0  0  0  0  0  0  0  0  0  0  0
    1.5928    1.9430    0.0495 H   0  0  0  0  0  0  0  0  0  0  0  0
    1.9180   -1.0843   -0.8712 H   0  0  0  0  0  0  0  0  0  0  0  0
    3.5488    0.6194    0.8401 H   0  0  0  0  0  0  0  0  0  0  0  0
    1.5638    0.3216    1.9393 H   0  0  0  0  0  0  0  0  0  0  0  0
    0.0545   -1.8592    0.5492 H   0  0  0  0  0  0  0  0  0  0  0  0
   -0.5989   -0.9017    1.9513 H   0  0  0  0  0  0  0  0  0  0  0  0
  1  2  1  0
  2  3  1  0
  3  4  2  0
  4  5  1  0
  5  6  1  0
  6  7  1  0
  6  8  1  0
  8  9  1  0
  9  3  1  0
  8  5  1  0
  1 10  1  0
  2 11  1  0
  2 12  1  0
  4 13  1  0
  5 14  1  0
  6 15  1  0
  7 16  1  0
  8 17  1  0
  9 18  1  0
  9 19  1  0
M  END
