
     RDKit          3D

 21 22  0  0  0  0  0  0  0  0999 V2000
    3.1077   -0.1531    0.8829 O   0  0  0  0  0  0  0  0  0  0  0  0
    2.2338   -0.6669   -0.1042 C   0  0  0  0  0  0  0  0  0  0  0  0
    1.1250    0.3141   -0.2610 C   0  0  0  0  0  0  0  0  0  0  0  0
    0.3272    0.5491    1.0259 C   0  0  0  0  0  0  0  0  0  0  0  0
   -0.2622   -0.0017   -0.1874 C   0  0  0  0  0  0  0  0  0  0  0  0
   -0.9379   -1.2983   -0.3072 C   0  0  0  0  0  0  0  0  0  0  0  0
   -2.2548   -0.5228   -0.4636 C   0  0  0  0  0  0  0  0  0  0  0  0
   -1.3844    0.6706   -0.8857 C   0  0  0  0  0  0  0  0  0  0  0  0
   -1.7562    1.8367   -0.1808 O   0  0  0  0  0  0  0  0  0  0  0  0
    3.5593    0.6381    0.4511 H   0  0  0  0  0  0  0  0  0  0  0  0
    1.8540   -1.6357    0.2877 H   0  0  0  0  0  0  0  0  0  0  0  0
    2.8372   -0.7976   -1.0162 H   0  0  0  0  0  0  0  0  0  0  0  0
    1.4295    1.2426   -0.8279 H   0  0  0  0  0  0  0  0  0  0  0  0
    0.5108   -0.1168    1.8866 H   0  0  0  0  0  0  0  0  0  0  0  0
    0.1219    1.6023    1.2608 H   0  0  0  0  0  0  0  0  0  0  0  0
   -0.9157   -1.9948    0.5307 H   0  0  0  0  0  0  0  0  0  0  0  0
   -0.7352   -1.7963   -1.3000 H   0  0  0  0  0  0  0  0  0  0  0  0
   -2.6996   -0.3283    0.5426 H   0  0  0  0  0  0  0  0  0  0  0  0
   -2.9239   -0.9007   -1.2314 H   0  0  0  0  0  0  0  0  0  0  0  0
   -1.3275    0.7920   -1.9687 H   0  0  0  0  0  0  0  0  0  0  0  0
   -1.9091    2.5676   -0.8097 H   0  0  0  0  0  0  0  0  0  0  0  0
  1  2  1  0
  2  3  1  0
  3  4  1  0
  4  5  1  0
  5  6  1  0
  6  7  1  0
  7  8  1  0
  8  9  1  0
  5  3  1  0
  8  5  1  0
  1 10  1  0
  2 11  1  0
  2 12  1  0
  3 13  1  0
  4 14  1  0
  4 15  1  0
  6 16  1  0
  6 17  1  0
  7 18  1  0
  7 19  1  0
  8 20  1  0
  9 21  1  0
M  END
