
     RDKit          3D

 19 20  0  0  0  0  0  0  0  0999 V2000
    2.2317    1.5241    0.1744 O   0  0  0  0  0  0  0  0  0  0  0  0
    1.7089    0.2475   -0.0016 C   0  0  0  0  0  0  0  0  0  0  0  0
    0.3380    0.2824   -0.6684 C   0  0  0  0  0  0  0  0  0  0  0  0
   -0.7114    1.0447    0.0956 C   0  0  0  0  0  0  0  0  0  0  0  0
   -1.4055    1.9731   -0.6666 O   0  0  0  0  0  0  0  0  0  0  0  0
   -1.4734   -0.2496    0.2535 C   0  0  0  0  0  0  0  0  0  0  0  0
   -0.7378   -1.3302    0.9549 C   0  0  0  0  0  0  0  0  0  0  0  0
   -0.3698   -1.0178   -0.4217 C   0  0  0  0  0  0  0  0  0  0  0  0
   -0.7112   -1.8326   -1.4910 O   0  0  0  0  0  0  0  0  0  0  0  0
    2.9091    1.4473    0.9189 H   0  0  0  0  0  0  0  0  0  0  0  0
    2.3517   -0.3735   -0.6748 H   0  0  0  0  0  0  0  0  0  0  0  0
    1.6874   -0.2575    0.9637 H   0  0  0  0  0  0  0  0  0  0  0  0
    0.3453    0.5907   -1.7160 H   0  0  0  0  0  0  0  0  0  0  0  0
   -0.4287    1.4481    1.0668 H   0  0  0  0  0  0  0  0  0  0  0  0
   -1.4396    2.8615   -0.2577 H   0  0  0  0  0  0  0  0  0  0  0  0
   -2.4631   -0.3800   -0.1841 H   0  0  0  0  0  0  0  0  0  0  0  0
   -1.3129   -2.2222    1.2515 H   0  0  0  0  0  0  0  0  0  0  0  0
   -0.0458   -0.9851    1.7532 H   0  0  0  0  0  0  0  0  0  0  0  0
   -0.4731   -2.7709   -1.3505 H   0  0  0  0  0  0  0  0  0  0  0  0
  1  2  1  0
  2  3  1  0
  3  4  1  0
  4  5  1  0
  4  6  1  0
  6  7  1  0
  7  8  1  0
  8  9  1  0
  8  3  1  0
  8  6  1  0
  1 10  1  0
  2 11  1  0
  2 12  1  0
  3 13  1  0
  4 14  1  0
  5 15  1  0
  6 16  1  0
  7 17  1  0
  7 18  1  0
  9 19  1  0
M  END
