
     RDKit          3D

 19 20  0  0  0  0  0  0  0  0999 V2000
    2.5748   -0.2816    0.6766 O   0  0  0  0  0  0  0  0  0  0  0  0
    1.8849    0.8452    0.2396 C   0  0  0  0  0  0  0  0  0  0  0  0
    0.5781    0.3717   -0.4031 C   0  0  0  0  0  0  0  0  0  0  0  0
   -0.6210    1.2697   -0.3475 C   0  0  0  0  0  0  0  0  0  0  0  0
   -1.8228    0.3972   -0.0679 C   0  0  0  0  0  0  0  0  0  0  0  0
   -1.3577   -1.0197   -0.2297 C   0  0  0  0  0  0  0  0  0  0  0  0
   -1.7017   -1.8198    0.8676 O   0  0  0  0  0  0  0  0  0  0  0  0
    0.1662   -0.9490   -0.2389 C   0  0  0  0  0  0  0  0  0  0  0  0
    0.7195   -0.4864   -1.5069 O   0  0  0  0  0  0  0  0  0  0  0  0
    3.5373   -0.2641    0.4350 H   0  0  0  0  0  0  0  0  0  0  0  0
    2.5012    1.3349   -0.5387 H   0  0  0  0  0  0  0  0  0  0  0  0
    1.6527    1.4829    1.0961 H   0  0  0  0  0  0  0  0  0  0  0  0
   -0.4634    1.9636    0.5208 H   0  0  0  0  0  0  0  0  0  0  0  0
   -0.7995    1.8453   -1.2637 H   0  0  0  0  0  0  0  0  0  0  0  0
   -2.6370    0.5830   -0.8032 H   0  0  0  0  0  0  0  0  0  0  0  0
   -2.2414    0.6038    0.9240 H   0  0  0  0  0  0  0  0  0  0  0  0
   -1.6508   -1.4721   -1.1931 H   0  0  0  0  0  0  0  0  0  0  0  0
   -1.0328   -2.5749    0.8640 H   0  0  0  0  0  0  0  0  0  0  0  0
    0.7135   -1.8296    0.1130 H   0  0  0  0  0  0  0  0  0  0  0  0
  1  2  1  0
  2  3  1  0
  3  4  1  0
  4  5  1  0
  5  6  1  0
  6  7  1  0
  6  8  1  0
  8  9  1  0
  8  3  1  0
  9  3  1  0
  1 10  1  0
  2 11  1  0
  2 12  1  0
  4 13  1  0
  4 14  1  0
  5 15  1  0
  5 16  1  0
  6 17  1  0
  7 18  1  0
  8 19  1  0
M  END
