
     RDKit          3D

 19 20  0  0  0  0  0  0  0  0999 V2000
   -1.6876    1.9370   -0.3180 O   0  0  0  0  0  0  0  0  0  0  0  0
   -1.8480    0.5793   -0.1898 C   0  0  0  0  0  0  0  0  0  0  0  0
   -0.5140   -0.0892   -0.2137 C   0  0  0  0  0  0  0  0  0  0  0  0
   -0.4855   -1.5260    0.2324 C   0  0  0  0  0  0  0  0  0  0  0  0
    0.0148   -1.1537    1.4652 O   0  0  0  0  0  0  0  0  0  0  0  0
    0.3600    0.1049    0.9822 C   0  0  0  0  0  0  0  0  0  0  0  0
    1.7381    0.2072    0.3750 C   0  0  0  0  0  0  0  0  0  0  0  0
    1.5505   -0.1742   -1.0598 C   0  0  0  0  0  0  0  0  0  0  0  0
    0.2336    0.0937   -1.3438 O   0  0  0  0  0  0  0  0  0  0  0  0
   -1.9254    2.4668    0.4698 H   0  0  0  0  0  0  0  0  0  0  0  0
   -2.3566    0.3716    0.7710 H   0  0  0  0  0  0  0  0  0  0  0  0
   -2.4477    0.2026   -1.0447 H   0  0  0  0  0  0  0  0  0  0  0  0
   -1.4918   -1.9587    0.2083 H   0  0  0  0  0  0  0  0  0  0  0  0
    0.2311   -2.1661   -0.3055 H   0  0  0  0  0  0  0  0  0  0  0  0
    0.0786    0.8844    1.6941 H   0  0  0  0  0  0  0  0  0  0  0  0
    2.0212    1.2886    0.3948 H   0  0  0  0  0  0  0  0  0  0  0  0
    2.5016   -0.3615    0.9018 H   0  0  0  0  0  0  0  0  0  0  0  0
    2.1691    0.4983   -1.7191 H   0  0  0  0  0  0  0  0  0  0  0  0
    1.8579   -1.2050   -1.3000 H   0  0  0  0  0  0  0  0  0  0  0  0
  1  2  1  0
  2  3  1  0
  3  4  1  0
  4  5  1  0
  5  6  1  0
  6  7  1  0
  7  8  1  0
  8  9  1  0
  6  3  1  0
  9  3  1  0
  1 10  1  0
  2 11  1  0
  2 12  1  0
  4 13  1  0
  4 14  1  0
  6 15  1  0
  7 16  1  0
  7 17  1  0
  8 18  1  0
  8 19  1  0
M  END
