
     RDKit          3D

 18 18  0  0  0  0  0  0  0  0999 V2000
   -1.8772   -0.2946    1.2778 O   0  0  0  0  0  0  0  0  0  0  0  0
   -1.6430    0.6162    0.2603 C   0  0  0  0  0  0  0  0  0  0  0  0
   -0.4306    0.2312   -0.5612 C   0  0  0  0  0  0  0  0  0  0  0  0
   -0.6052   -1.1288   -1.2033 C   0  0  0  0  0  0  0  0  0  0  0  0
    0.7666   -1.3438   -0.9641 O   0  0  0  0  0  0  0  0  0  0  0  0
    0.6120   -0.5572    0.1786 C   0  0  0  0  0  0  0  0  0  0  0  0
    1.8899    0.1744    0.4940 C   0  0  0  0  0  0  0  0  0  0  0  0
    2.2547    0.9969   -0.5472 O   0  0  0  0  0  0  0  0  0  0  0  0
   -1.5164    0.0572    2.1484 H   0  0  0  0  0  0  0  0  0  0  0  0
   -1.4954    1.6305    0.6765 H   0  0  0  0  0  0  0  0  0  0  0  0
   -2.5159    0.6816   -0.4417 H   0  0  0  0  0  0  0  0  0  0  0  0
   -0.0502    1.0052   -1.2302 H   0  0  0  0  0  0  0  0  0  0  0  0
   -1.1738   -1.8133   -0.5410 H   0  0  0  0  0  0  0  0  0  0  0  0
   -0.8956   -1.1254   -2.2641 H   0  0  0  0  0  0  0  0  0  0  0  0
    0.1794   -1.1346    0.9935 H   0  0  0  0  0  0  0  0  0  0  0  0
    2.6804   -0.6148    0.6097 H   0  0  0  0  0  0  0  0  0  0  0  0
    1.8544    0.7116    1.4549 H   0  0  0  0  0  0  0  0  0  0  0  0
    1.9659    1.9078   -0.3411 H   0  0  0  0  0  0  0  0  0  0  0  0
  1  2  1  0
  2  3  1  0
  3  4  1  0
  4  5  1  0
  5  6  1  0
  6  7  1  0
  7  8  1  0
  6  3  1  0
  1  9  1  0
  2 10  1  0
  2 11  1  0
  3 12  1  0
  4 13  1  0
  4 14  1  0
  6 15  1  0
  7 16  1  0
  7 17  1  0
  8 18  1  0
M  END
