
     RDKit          3D

 19 20  0  0  0  0  0  0  0  0999 V2000
    2.9810    0.2827    0.6823 O   0  0  0  0  0  0  0  0  0  0  0  0
    1.7782   -0.3929    0.7919 C   0  0  0  0  0  0  0  0  0  0  0  0
    0.7394    0.0955   -0.1882 C   0  0  0  0  0  0  0  0  0  0  0  0
    0.4336    1.4312   -0.0320 O   0  0  0  0  0  0  0  0  0  0  0  0
   -0.7428    1.5666   -0.7999 C   0  0  0  0  0  0  0  0  0  0  0  0
   -1.5901    0.4564   -0.2086 C   0  0  0  0  0  0  0  0  0  0  0  0
   -1.5256   -0.8638   -0.9077 C   0  0  0  0  0  0  0  0  0  0  0  0
   -0.5877   -0.5579    0.1867 C   0  0  0  0  0  0  0  0  0  0  0  0
   -0.6560   -1.2071    1.4132 O   0  0  0  0  0  0  0  0  0  0  0  0
    3.7033   -0.3356    0.4014 H   0  0  0  0  0  0  0  0  0  0  0  0
    1.9486   -1.4776    0.5441 H   0  0  0  0  0  0  0  0  0  0  0  0
    1.4193   -0.3339    1.8333 H   0  0  0  0  0  0  0  0  0  0  0  0
    1.0432   -0.1321   -1.2100 H   0  0  0  0  0  0  0  0  0  0  0  0
   -1.2039    2.5470   -0.6975 H   0  0  0  0  0  0  0  0  0  0  0  0
   -0.5425    1.3107   -1.8621 H   0  0  0  0  0  0  0  0  0  0  0  0
   -2.4360    0.7347    0.4244 H   0  0  0  0  0  0  0  0  0  0  0  0
   -1.1871   -0.8490   -1.9594 H   0  0  0  0  0  0  0  0  0  0  0  0
   -2.3201   -1.6180   -0.6563 H   0  0  0  0  0  0  0  0  0  0  0  0
   -1.2549   -0.6569    1.9956 H   0  0  0  0  0  0  0  0  0  0  0  0
  1  2  1  0
  2  3  1  0
  3  4  1  0
  4  5  1  0
  5  6  1  0
  6  7  1  0
  7  8  1  0
  8  9  1  0
  8  3  1  0
  8  6  1  0
  1 10  1  0
  2 11  1  0
  2 12  1  0
  3 13  1  0
  5 14  1  0
  5 15  1  0
  6 16  1  0
  7 17  1  0
  7 18  1  0
  9 19  1  0
M  END
