
     RDKit          3D

 15 15  0  0  0  0  0  0  0  0999 V2000
    2.0319    0.9706    0.0947 O   0  0  0  0  0  0  0  0  0  0  0  0
    1.3101   -0.1774    0.4131 C   0  0  0  0  0  0  0  0  0  0  0  0
    0.2828   -0.3774   -0.6778 C   0  0  0  0  0  0  0  0  0  0  0  0
   -0.4760   -1.5157   -0.4178 O   0  0  0  0  0  0  0  0  0  0  0  0
   -1.3261   -0.7141    0.3451 C   0  0  0  0  0  0  0  0  0  0  0  0
   -0.9694    0.4362   -0.5345 C   0  0  0  0  0  0  0  0  0  0  0  0
   -0.8100    1.6677    0.0821 O   0  0  0  0  0  0  0  0  0  0  0  0
    2.7622    0.6805   -0.5105 H   0  0  0  0  0  0  0  0  0  0  0  0
    0.8787   -0.0480    1.4013 H   0  0  0  0  0  0  0  0  0  0  0  0
    1.9983   -1.0401    0.4148 H   0  0  0  0  0  0  0  0  0  0  0  0
    0.7045   -0.3209   -1.6900 H   0  0  0  0  0  0  0  0  0  0  0  0
   -1.0747   -0.6327    1.4163 H   0  0  0  0  0  0  0  0  0  0  0  0
   -2.3641   -1.0936    0.2504 H   0  0  0  0  0  0  0  0  0  0  0  0
   -1.5521    0.4223   -1.4639 H   0  0  0  0  0  0  0  0  0  0  0  0
   -1.3961    1.7426    0.8768 H   0  0  0  0  0  0  0  0  0  0  0  0
  1  2  1  0
  2  3  1  0
  3  4  1  0
  4  5  1  0
  5  6  1  0
  6  7  1  0
  6  3  1  0
  1  8  1  0
  2  9  1  0
  2 10  1  0
  3 11  1  0
  5 12  1  0
  5 13  1  0
  6 14  1  0
  7 15  1  0
M  END
