
     RDKit          3D

 19 20  0  0  0  0  0  0  0  0999 V2000
    3.1407    0.0777    0.2023 O   0  0  0  0  0  0  0  0  0  0  0  0
    2.0033    0.8748    0.3582 C   0  0  0  0  0  0  0  0  0  0  0  0
    0.7429    0.0810    0.4173 C   0  0  0  0  0  0  0  0  0  0  0  0
    0.2960   -0.7950   -0.6800 C   0  0  0  0  0  0  0  0  0  0  0  0
   -0.7627   -1.7857   -0.3586 C   0  0  0  0  0  0  0  0  0  0  0  0
   -1.9153   -1.1900   -0.0878 C   0  0  0  0  0  0  0  0  0  0  0  0
   -1.7746    0.2867   -0.1941 C   0  0  0  0  0  0  0  0  0  0  0  0
   -2.0923    0.9348    0.9910 O   0  0  0  0  0  0  0  0  0  0  0  0
   -0.3295    0.5423   -0.5394 C   0  0  0  0  0  0  0  0  0  0  0  0
    3.3629   -0.2725    1.1018 H   0  0  0  0  0  0  0  0  0  0  0  0
    2.1343    1.4167    1.3186 H   0  0  0  0  0  0  0  0  0  0  0  0
    1.9699    1.6771   -0.4259 H   0  0  0  0  0  0  0  0  0  0  0  0
    0.4361   -0.2290    1.4543 H   0  0  0  0  0  0  0  0  0  0  0  0
    0.9071   -1.0086   -1.5689 H   0  0  0  0  0  0  0  0  0  0  0  0
   -0.6092   -2.8520   -0.3480 H   0  0  0  0  0  0  0  0  0  0  0  0
   -2.8401   -1.6720    0.1749 H   0  0  0  0  0  0  0  0  0  0  0  0
   -2.3902    0.6554   -1.0356 H   0  0  0  0  0  0  0  0  0  0  0  0
   -2.1537    1.8990    0.8039 H   0  0  0  0  0  0  0  0  0  0  0  0
   -0.1256    1.3593   -1.2454 H   0  0  0  0  0  0  0  0  0  0  0  0
  1  2  1  0
  2  3  1  0
  3  4  1  0
  4  5  1  0
  5  6  2  0
  6  7  1  0
  7  8  1  0
  7  9  1  0
  9  3  1  0
  9  4  1  0
  1 10  1  0
  2 11  1  0
  2 12  1  0
  3 13  1  0
  4 14  1  0
  5 15  1  0
  6 16  1  0
  7 17  1  0
  8 18  1  0
  9 19  1  0
M  END
