
     RDKit          3D

 19 20  0  0  0  0  0  0  0  0999 V2000
    2.7820   -1.0729    0.3264 O   0  0  0  0  0  0  0  0  0  0  0  0
    2.2337    0.1906    0.1051 C   0  0  0  0  0  0  0  0  0  0  0  0
    0.7460    0.0753   -0.1147 C   0  0  0  0  0  0  0  0  0  0  0  0
    0.1064    1.4264   -0.3293 C   0  0  0  0  0  0  0  0  0  0  0  0
   -1.1943    1.1994   -0.7568 O   0  0  0  0  0  0  0  0  0  0  0  0
   -1.9146    0.3605    0.0381 C   0  0  0  0  0  0  0  0  0  0  0  0
   -1.8433   -1.1331   -0.3168 C   0  0  0  0  0  0  0  0  0  0  0  0
   -1.2176   -0.5584    0.9068 C   0  0  0  0  0  0  0  0  0  0  0  0
    0.1403   -0.4841    0.9903 O   0  0  0  0  0  0  0  0  0  0  0  0
    2.4761   -1.7015   -0.3630 H   0  0  0  0  0  0  0  0  0  0  0  0
    2.3729    0.8243    1.0144 H   0  0  0  0  0  0  0  0  0  0  0  0
    2.6567    0.6806   -0.8052 H   0  0  0  0  0  0  0  0  0  0  0  0
    0.5971   -0.5129   -1.0462 H   0  0  0  0  0  0  0  0  0  0  0  0
    0.0265    1.9931    0.6368 H   0  0  0  0  0  0  0  0  0  0  0  0
    0.6587    1.9692   -1.0963 H   0  0  0  0  0  0  0  0  0  0  0  0
   -2.9404    0.7040    0.2755 H   0  0  0  0  0  0  0  0  0  0  0  0
   -2.7323   -1.7514   -0.1634 H   0  0  0  0  0  0  0  0  0  0  0  0
   -1.2384   -1.4145   -1.1956 H   0  0  0  0  0  0  0  0  0  0  0  0
   -1.7154   -0.7944    1.8937 H   0  0  0  0  0  0  0  0  0  0  0  0
  1  2  1  0
  2  3  1  0
  3  4  1  0
  4  5  1  0
  5  6  1  0
  6  7  1  0
  7  8  1  0
  8  9  1  0
  9  3  1  0
  8  6  1  0
  1 10  1  0
  2 11  1  0
  2 12  1  0
  3 13  1  0
  4 14  1  0
  4 15  1  0
  6 16  1  0
  7 17  1  0
  7 18  1  0
  8 19  1  0
M  END
