
     RDKit          3D

 19 21  0  0  0  0  0  0  0  0999 V2000
   -2.7864   -0.5158   -0.0862 O   0  0  0  0  0  0  0  0  0  0  0  0
   -1.7162   -0.4790    0.8046 C   0  0  0  0  0  0  0  0  0  0  0  0
   -0.4685   -0.1207    0.0484 C   0  0  0  0  0  0  0  0  0  0  0  0
   -0.4071    1.1737   -0.6728 C   0  0  0  0  0  0  0  0  0  0  0  0
    1.0741    1.2671   -0.2818 C   0  0  0  0  0  0  0  0  0  0  0  0
    1.8229    0.5181   -1.1399 O   0  0  0  0  0  0  0  0  0  0  0  0
    1.8201   -0.8009   -0.7683 C   0  0  0  0  0  0  0  0  0  0  0  0
    0.7326   -0.9456    0.3057 C   0  0  0  0  0  0  0  0  0  0  0  0
    0.7335    0.3860    0.8801 C   0  0  0  0  0  0  0  0  0  0  0  0
   -2.5809   -0.9899   -0.9174 H   0  0  0  0  0  0  0  0  0  0  0  0
   -1.9641    0.2911    1.5651 H   0  0  0  0  0  0  0  0  0  0  0  0
   -1.6268   -1.4923    1.2444 H   0  0  0  0  0  0  0  0  0  0  0  0
   -0.5898    1.1849   -1.7457 H   0  0  0  0  0  0  0  0  0  0  0  0
   -1.0327    1.9438   -0.1406 H   0  0  0  0  0  0  0  0  0  0  0  0
    1.3697    2.2882   -0.0692 H   0  0  0  0  0  0  0  0  0  0  0  0
    1.6846   -1.5213   -1.5793 H   0  0  0  0  0  0  0  0  0  0  0  0
    2.7714   -1.0951   -0.2367 H   0  0  0  0  0  0  0  0  0  0  0  0
    0.6978   -1.8099    0.9396 H   0  0  0  0  0  0  0  0  0  0  0  0
    0.4657    0.7176    1.8501 H   0  0  0  0  0  0  0  0  0  0  0  0
  1  2  1  0
  2  3  1  0
  3  4  1  0
  4  5  1  0
  5  6  1  0
  6  7  1  0
  7  8  1  0
  8  9  1  0
  8  3  1  0
  9  3  1  0
  9  5  1  0
  1 10  1  0
  2 11  1  0
  2 12  1  0
  4 13  1  0
  4 14  1  0
  5 15  1  0
  7 16  1  0
  7 17  1  0
  8 18  1  0
  9 19  1  0
M  END
