
     RDKit          3D

 16 17  0  0  0  0  0  0  0  0999 V2000
   -2.3121   -0.2330    0.6303 O   0  0  0  0  0  0  0  0  0  0  0  0
   -0.9519   -0.5775    0.6959 C   0  0  0  0  0  0  0  0  0  0  0  0
   -0.1590    0.4303   -0.1386 C   0  0  0  0  0  0  0  0  0  0  0  0
    1.2887    0.1086   -0.3899 C   0  0  0  0  0  0  0  0  0  0  0  0
    1.9774   -0.9417    0.4205 C   0  0  0  0  0  0  0  0  0  0  0  0
    1.5484   -1.1711   -0.8823 O   0  0  0  0  0  0  0  0  0  0  0  0
   -0.9074    1.3765   -0.9261 C   0  0  0  0  0  0  0  0  0  0  0  0
   -0.3395    1.7745    0.3705 O   0  0  0  0  0  0  0  0  0  0  0  0
   -2.7205   -0.5986   -0.2030 H   0  0  0  0  0  0  0  0  0  0  0  0
   -0.8120   -1.5826    0.2716 H   0  0  0  0  0  0  0  0  0  0  0  0
   -0.5964   -0.6070    1.7442 H   0  0  0  0  0  0  0  0  0  0  0  0
    1.8916    0.9559   -0.7326 H   0  0  0  0  0  0  0  0  0  0  0  0
    3.0946   -0.8511    0.5208 H   0  0  0  0  0  0  0  0  0  0  0  0
    1.4167   -1.3258    1.2741 H   0  0  0  0  0  0  0  0  0  0  0  0
   -0.4142    1.8708   -1.7944 H   0  0  0  0  0  0  0  0  0  0  0  0
   -2.0044    1.3718   -0.8609 H   0  0  0  0  0  0  0  0  0  0  0  0
  1  2  1  0
  2  3  1  0
  3  4  1  0
  4  5  1  0
  5  6  1  0
  3  7  1  0
  7  8  1  0
  8  3  1  0
  6  4  1  0
  1  9  1  0
  2 10  1  0
  2 11  1  0
  4 12  1  0
  5 13  1  0
  5 14  1  0
  7 15  1  0
  7 16  1  0
M  END
