
     RDKit          3D

 19 20  0  0  0  0  0  0  0  0999 V2000
    2.6934    0.3308   -0.2434 O   0  0  0  0  0  0  0  0  0  0  0  0
    1.9477   -0.6933    0.3370 C   0  0  0  0  0  0  0  0  0  0  0  0
    0.5380   -0.2915    0.4029 C   0  0  0  0  0  0  0  0  0  0  0  0
   -0.0154    0.1283   -0.9741 C   0  0  0  0  0  0  0  0  0  0  0  0
   -1.4055    0.4231   -0.3763 C   0  0  0  0  0  0  0  0  0  0  0  0
   -0.9473    1.3742    0.7074 C   0  0  0  0  0  0  0  0  0  0  0  0
    0.2847    0.8515    1.1437 O   0  0  0  0  0  0  0  0  0  0  0  0
   -1.6233   -0.9115    0.2846 C   0  0  0  0  0  0  0  0  0  0  0  0
   -0.3516   -1.2934    0.7431 O   0  0  0  0  0  0  0  0  0  0  0  0
    2.8145    0.1822   -1.2100 H   0  0  0  0  0  0  0  0  0  0  0  0
    2.0603   -1.5745   -0.3275 H   0  0  0  0  0  0  0  0  0  0  0  0
    2.3351   -0.9652    1.3136 H   0  0  0  0  0  0  0  0  0  0  0  0
   -0.0421   -0.7044   -1.6716 H   0  0  0  0  0  0  0  0  0  0  0  0
    0.4309    1.0512   -1.3278 H   0  0  0  0  0  0  0  0  0  0  0  0
   -2.1266    0.7695   -1.0632 H   0  0  0  0  0  0  0  0  0  0  0  0
   -1.6639    1.5109    1.5115 H   0  0  0  0  0  0  0  0  0  0  0  0
   -0.6766    2.3322    0.1771 H   0  0  0  0  0  0  0  0  0  0  0  0
   -1.8856   -1.6346   -0.5165 H   0  0  0  0  0  0  0  0  0  0  0  0
   -2.3669   -0.8856    1.0895 H   0  0  0  0  0  0  0  0  0  0  0  0
  1  2  1  0
  2  3  1  0
  3  4  1  0
  4  5  1  0
  5  6  1  0
  6  7  1  0
  5  8  1  0
  8  9  1  0
  7  3  1  0
  9  3  1  0
  1 10  1  0
  2 11  1  0
  2 12  1  0
  4 13  1  0
  4 14  1  0
  5 15  1  0
  6 16  1  0
  6 17  1  0
  8 18  1  0
  8 19  1  0
M  END
