
     RDKit          3D

 21 21  0  0  0  0  0  0  0  0999 V2000
    1.9284    2.0580    0.2067 O   0  0  0  0  0  0  0  0  0  0  0  0
    1.9563    0.6877   -0.0084 C   0  0  0  0  0  0  0  0  0  0  0  0
    0.6397    0.1498   -0.4910 C   0  0  0  0  0  0  0  0  0  0  0  0
    0.6175   -1.3432   -0.7413 C   0  0  0  0  0  0  0  0  0  0  0  0
   -0.8072   -1.3161   -0.2208 C   0  0  0  0  0  0  0  0  0  0  0  0
   -1.1645   -2.4258    0.5265 O   0  0  0  0  0  0  0  0  0  0  0  0
   -0.3872   -0.1072    0.5976 C   0  0  0  0  0  0  0  0  0  0  0  0
   -1.4479    0.9694    0.6615 C   0  0  0  0  0  0  0  0  0  0  0  0
   -2.0971    1.0001   -0.5698 O   0  0  0  0  0  0  0  0  0  0  0  0
    2.2513    2.2720    1.1185 H   0  0  0  0  0  0  0  0  0  0  0  0
    2.2815    0.1183    0.8846 H   0  0  0  0  0  0  0  0  0  0  0  0
    2.6862    0.5294   -0.8578 H   0  0  0  0  0  0  0  0  0  0  0  0
    0.1691    0.6745   -1.3226 H   0  0  0  0  0  0  0  0  0  0  0  0
    1.3041   -1.8992   -0.0514 H   0  0  0  0  0  0  0  0  0  0  0  0
    0.7041   -1.6387   -1.8049 H   0  0  0  0  0  0  0  0  0  0  0  0
   -1.5048   -1.0090   -1.0055 H   0  0  0  0  0  0  0  0  0  0  0  0
   -2.0092   -2.7951    0.1557 H   0  0  0  0  0  0  0  0  0  0  0  0
    0.0253   -0.4321    1.5684 H   0  0  0  0  0  0  0  0  0  0  0  0
   -1.0171    1.9350    0.9212 H   0  0  0  0  0  0  0  0  0  0  0  0
   -2.1884    0.6937    1.4370 H   0  0  0  0  0  0  0  0  0  0  0  0
   -1.9401    1.8785   -1.0040 H   0  0  0  0  0  0  0  0  0  0  0  0
  1  2  1  0
  2  3  1  0
  3  4  1  0
  4  5  1  0
  5  6  1  0
  5  7  1  0
  7  8  1  0
  8  9  1  0
  7  3  1  0
  1 10  1  0
  2 11  1  0
  2 12  1  0
  3 13  1  0
  4 14  1  0
  4 15  1  0
  5 16  1  0
  6 17  1  0
  7 18  1  0
  8 19  1  0
  8 20  1  0
  9 21  1  0
M  END
