
     RDKit          3D

 17 19  0  0  0  0  0  0  0  0999 V2000
   -2.8813   -0.1774   -0.3527 O   0  0  0  0  0  0  0  0  0  0  0  0
   -1.7889    0.5114    0.1059 C   0  0  0  0  0  0  0  0  0  0  0  0
   -0.4979    0.1426   -0.5729 C   0  0  0  0  0  0  0  0  0  0  0  0
    0.6730    0.8553   -0.1078 C   0  0  0  0  0  0  0  0  0  0  0  0
    1.9232    0.6045   -0.9218 C   0  0  0  0  0  0  0  0  0  0  0  0
    3.0052   -0.1560   -0.5882 O   0  0  0  0  0  0  0  0  0  0  0  0
    2.0096   -0.4339    0.2127 C   0  0  0  0  0  0  0  0  0  0  0  0
    0.5646   -0.6817    0.0120 C   0  0  0  0  0  0  0  0  0  0  0  0
    0.0301   -1.2656    1.1916 O   0  0  0  0  0  0  0  0  0  0  0  0
   -3.0175   -1.0094    0.1747 H   0  0  0  0  0  0  0  0  0  0  0  0
   -1.6620    0.2560    1.1884 H   0  0  0  0  0  0  0  0  0  0  0  0
   -1.9520    1.6266    0.0373 H   0  0  0  0  0  0  0  0  0  0  0  0
   -0.5904    0.0411   -1.6969 H   0  0  0  0  0  0  0  0  0  0  0  0
    0.7608    1.3344    0.8859 H   0  0  0  0  0  0  0  0  0  0  0  0
    1.6914    0.3074   -1.9674 H   0  0  0  0  0  0  0  0  0  0  0  0
    2.1879    0.1295    1.1977 H   0  0  0  0  0  0  0  0  0  0  0  0
   -0.4557   -2.0848    0.8573 H   0  0  0  0  0  0  0  0  0  0  0  0
  1  2  1  0
  2  3  1  0
  3  4  1  0
  4  5  1  0
  5  6  1  0
  6  7  1  0
  7  8  1  0
  8  9  1  0
  8  3  1  0
  8  4  1  0
  7  5  1  0
  1 10  1  0
  2 11  1  0
  2 12  1  0
  3 13  1  0
  4 14  1  0
  5 15  1  0
  7 16  1  0
  9 17  1  0
M  END
