
     RDKit          3D

 21 23  0  0  0  0  0  0  0  0999 V2000
    1.6756    0.2364    1.5126 O   0  0  0  0  0  0  0  0  0  0  0  0
    1.8538   -0.0765    0.2096 C   0  0  0  0  0  0  0  0  0  0  0  0
    0.6972   -0.2600   -0.6774 C   0  0  0  0  0  0  0  0  0  0  0  0
   -0.2969   -1.2937   -0.3964 C   0  0  0  0  0  0  0  0  0  0  0  0
   -0.9942   -1.8704    0.6707 C   0  0  0  0  0  0  0  0  0  0  0  0
   -1.0500   -0.4478    0.6735 C   0  0  0  0  0  0  0  0  0  0  0  0
   -1.4760    0.5962   -0.2568 C   0  0  0  0  0  0  0  0  0  0  0  0
   -0.6857    1.9500   -0.2149 C   0  0  0  0  0  0  0  0  0  0  0  0
   -0.1455    0.9012   -1.0341 C   0  0  0  0  0  0  0  0  0  0  0  0
    2.3067    0.8568    1.9113 H   0  0  0  0  0  0  0  0  0  0  0  0
    2.4903   -1.0144    0.1255 H   0  0  0  0  0  0  0  0  0  0  0  0
    2.5773    0.7049   -0.1879 H   0  0  0  0  0  0  0  0  0  0  0  0
    1.1998   -0.6029   -1.6718 H   0  0  0  0  0  0  0  0  0  0  0  0
   -0.8912   -1.4202   -1.3822 H   0  0  0  0  0  0  0  0  0  0  0  0
   -0.4007   -2.4197    1.4423 H   0  0  0  0  0  0  0  0  0  0  0  0
   -1.9630   -2.4026    0.5379 H   0  0  0  0  0  0  0  0  0  0  0  0
   -0.5076   -0.0131    1.5316 H   0  0  0  0  0  0  0  0  0  0  0  0
   -2.4088    0.6218   -0.8039 H   0  0  0  0  0  0  0  0  0  0  0  0
   -1.2013    2.7914   -0.6837 H   0  0  0  0  0  0  0  0  0  0  0  0
   -0.4120    2.1610    0.8367 H   0  0  0  0  0  0  0  0  0  0  0  0
   -0.3675    1.0017   -2.1424 H   0  0  0  0  0  0  0  0  0  0  0  0
  1  2  1  0
  2  3  1  0
  3  4  1  0
  4  5  1  0
  5  6  1  0
  6  7  1  0
  7  8  1  0
  8  9  1  0
  9  3  1  0
  6  4  1  0
  9  7  1  0
  1 10  1  0
  2 11  1  0
  2 12  1  0
  3 13  1  0
  4 14  1  0
  5 15  1  0
  5 16  1  0
  6 17  1  0
  7 18  1  0
  8 19  1  0
  8 20  1  0
  9 21  1  0
M  END
