
     RDKit          3D

 21 22  0  0  0  0  0  0  0  0999 V2000
    3.2382   -0.1908   -0.2612 O   0  0  0  0  0  0  0  0  0  0  0  0
    2.1504    0.3592    0.4005 C   0  0  0  0  0  0  0  0  0  0  0  0
    0.8626    0.0735   -0.3309 C   0  0  0  0  0  0  0  0  0  0  0  0
    0.5653   -1.3490   -0.4843 C   0  0  0  0  0  0  0  0  0  0  0  0
   -0.5615   -1.6980    0.1230 C   0  0  0  0  0  0  0  0  0  0  0  0
   -1.1783   -0.5337    0.7750 C   0  0  0  0  0  0  0  0  0  0  0  0
   -2.3199    0.1201    0.0728 C   0  0  0  0  0  0  0  0  0  0  0  0
   -1.3737    1.0984   -0.5551 C   0  0  0  0  0  0  0  0  0  0  0  0
   -0.3059    0.6329    0.4081 C   0  0  0  0  0  0  0  0  0  0  0  0
    3.4501    0.4317   -1.0119 H   0  0  0  0  0  0  0  0  0  0  0  0
    2.2816    1.4615    0.4064 H   0  0  0  0  0  0  0  0  0  0  0  0
    2.1007    0.0483    1.4678 H   0  0  0  0  0  0  0  0  0  0  0  0
    0.9668    0.5377   -1.3434 H   0  0  0  0  0  0  0  0  0  0  0  0
    1.1992   -2.0558   -1.0388 H   0  0  0  0  0  0  0  0  0  0  0  0
   -0.9641   -2.7032    0.1324 H   0  0  0  0  0  0  0  0  0  0  0  0
   -1.3845   -0.6558    1.8690 H   0  0  0  0  0  0  0  0  0  0  0  0
   -3.0053    0.6384    0.7629 H   0  0  0  0  0  0  0  0  0  0  0  0
   -2.8791   -0.5318   -0.6337 H   0  0  0  0  0  0  0  0  0  0  0  0
   -1.1524    0.8691   -1.6274 H   0  0  0  0  0  0  0  0  0  0  0  0
   -1.5793    2.1651   -0.3941 H   0  0  0  0  0  0  0  0  0  0  0  0
   -0.1110    1.2822    1.2628 H   0  0  0  0  0  0  0  0  0  0  0  0
  1  2  1  0
  2  3  1  0
  3  4  1  0
  4  5  2  0
  5  6  1  0
  6  7  1  0
  7  8  1  0
  8  9  1  0
  9  3  1  0
  9  6  1  0
  1 10  1  0
  2 11  1  0
  2 12  1  0
  3 13  1  0
  4 14  1  0
  5 15  1  0
  6 16  1  0
  7 17  1  0
  7 18  1  0
  8 19  1  0
  8 20  1  0
  9 21  1  0
M  END
