
     RDKit          3D

 19 21  0  0  0  0  0  0  0  0999 V2000
    2.6895    0.8814   -0.0887 O   0  0  0  0  0  0  0  0  0  0  0  0
    2.1561   -0.2926    0.4105 C   0  0  0  0  0  0  0  0  0  0  0  0
    0.6683   -0.3586    0.1413 C   0  0  0  0  0  0  0  0  0  0  0  0
   -0.0209   -1.4645    0.5734 O   0  0  0  0  0  0  0  0  0  0  0  0
   -1.3355   -1.1650    0.7645 C   0  0  0  0  0  0  0  0  0  0  0  0
   -1.5732    0.2213    0.2155 C   0  0  0  0  0  0  0  0  0  0  0  0
   -1.3461    0.2039   -1.2886 C   0  0  0  0  0  0  0  0  0  0  0  0
    0.1125    0.4316   -1.0158 C   0  0  0  0  0  0  0  0  0  0  0  0
   -0.1932    0.8068    0.3494 C   0  0  0  0  0  0  0  0  0  0  0  0
    2.4353    1.6876    0.3995 H   0  0  0  0  0  0  0  0  0  0  0  0
    2.6347   -1.1378   -0.1220 H   0  0  0  0  0  0  0  0  0  0  0  0
    2.3718   -0.4136    1.5090 H   0  0  0  0  0  0  0  0  0  0  0  0
   -1.9436   -1.8615    0.1369 H   0  0  0  0  0  0  0  0  0  0  0  0
   -1.6334   -1.2678    1.8212 H   0  0  0  0  0  0  0  0  0  0  0  0
   -2.4128    0.7839    0.5853 H   0  0  0  0  0  0  0  0  0  0  0  0
   -1.8762    0.9773   -1.8518 H   0  0  0  0  0  0  0  0  0  0  0  0
   -1.5012   -0.7873   -1.7639 H   0  0  0  0  0  0  0  0  0  0  0  0
    0.7374    1.0487   -1.6471 H   0  0  0  0  0  0  0  0  0  0  0  0
    0.0306    1.7060    0.8713 H   0  0  0  0  0  0  0  0  0  0  0  0
  1  2  1  0
  2  3  1  0
  3  4  1  0
  4  5  1  0
  5  6  1  0
  6  7  1  0
  7  8  1  0
  8  9  1  0
  8  3  1  0
  9  3  1  0
  9  6  1  0
  1 10  1  0
  2 11  1  0
  2 12  1  0
  5 13  1  0
  5 14  1  0
  6 15  1  0
  7 16  1  0
  7 17  1  0
  8 18  1  0
  9 19  1  0
M  END
