
     RDKit          3D

 21 21  0  0  0  0  0  0  0  0999 V2000
    2.8858    0.6478    1.1366 O   0  0  0  0  0  0  0  0  0  0  0  0
    2.3345   -0.2160    0.2233 C   0  0  0  0  0  0  0  0  0  0  0  0
    0.8777    0.1027    0.0321 C   0  0  0  0  0  0  0  0  0  0  0  0
    0.1083   -0.0193    1.3031 C   0  0  0  0  0  0  0  0  0  0  0  0
   -1.2134   -0.1141    1.4002 C   0  0  0  0  0  0  0  0  0  0  0  0
   -2.2232   -0.1206    0.2759 C   0  0  0  0  0  0  0  0  0  0  0  0
   -1.6588    0.5927   -0.9243 C   0  0  0  0  0  0  0  0  0  0  0  0
   -0.7700   -0.1220   -1.6598 O   0  0  0  0  0  0  0  0  0  0  0  0
    0.2071   -0.7912   -0.9724 C   0  0  0  0  0  0  0  0  0  0  0  0
    3.1153    1.5372    0.7771 H   0  0  0  0  0  0  0  0  0  0  0  0
    2.3899   -1.2398    0.6499 H   0  0  0  0  0  0  0  0  0  0  0  0
    2.8447   -0.1059   -0.7400 H   0  0  0  0  0  0  0  0  0  0  0  0
    0.7715    1.1600   -0.3153 H   0  0  0  0  0  0  0  0  0  0  0  0
    0.6797   -0.0312    2.2235 H   0  0  0  0  0  0  0  0  0  0  0  0
   -1.6042   -0.1959    2.4070 H   0  0  0  0  0  0  0  0  0  0  0  0
   -2.5662   -1.1267    0.0467 H   0  0  0  0  0  0  0  0  0  0  0  0
   -3.0723    0.5000    0.6567 H   0  0  0  0  0  0  0  0  0  0  0  0
   -1.2323    1.5603   -0.5641 H   0  0  0  0  0  0  0  0  0  0  0  0
   -2.5199    0.8638   -1.5759 H   0  0  0  0  0  0  0  0  0  0  0  0
    0.9244   -1.2038   -1.7159 H   0  0  0  0  0  0  0  0  0  0  0  0
   -0.2786   -1.6780   -0.4849 H   0  0  0  0  0  0  0  0  0  0  0  0
  1  2  1  0
  2  3  1  0
  3  4  1  0
  4  5  2  0
  5  6  1  0
  6  7  1  0
  7  8  1  0
  8  9  1  0
  9  3  1  0
  1 10  1  0
  2 11  1  0
  2 12  1  0
  3 13  1  0
  4 14  1  0
  5 15  1  0
  6 16  1  0
  6 17  1  0
  7 18  1  0
  7 19  1  0
  9 20  1  0
  9 21  1  0
M  END
