
     RDKit          3D

 21 21  0  0  0  0  0  0  0  0999 V2000
    2.3617    1.5755   -0.1153 O   0  0  0  0  0  0  0  0  0  0  0  0
    1.8315    0.4307    0.4785 C   0  0  0  0  0  0  0  0  0  0  0  0
    0.5524    0.1027   -0.2327 C   0  0  0  0  0  0  0  0  0  0  0  0
   -0.1399   -1.1184    0.3016 C   0  0  0  0  0  0  0  0  0  0  0  0
    0.5061   -2.2974    0.0024 O   0  0  0  0  0  0  0  0  0  0  0  0
   -1.4884   -1.0369   -0.4076 C   0  0  0  0  0  0  0  0  0  0  0  0
   -1.7067    0.4211   -0.7274 C   0  0  0  0  0  0  0  0  0  0  0  0
   -0.5110    1.1429   -0.0893 C   0  0  0  0  0  0  0  0  0  0  0  0
   -0.8471    1.3527    1.2341 O   0  0  0  0  0  0  0  0  0  0  0  0
    2.0175    1.6788   -1.0198 H   0  0  0  0  0  0  0  0  0  0  0  0
    2.5499   -0.3925    0.2471 H   0  0  0  0  0  0  0  0  0  0  0  0
    1.7512    0.4855    1.5622 H   0  0  0  0  0  0  0  0  0  0  0  0
    0.7734   -0.0826   -1.2997 H   0  0  0  0  0  0  0  0  0  0  0  0
   -0.2978   -1.0610    1.4103 H   0  0  0  0  0  0  0  0  0  0  0  0
    1.1089   -2.5638    0.7474 H   0  0  0  0  0  0  0  0  0  0  0  0
   -1.3650   -1.6112   -1.3516 H   0  0  0  0  0  0  0  0  0  0  0  0
   -2.2796   -1.4460    0.2313 H   0  0  0  0  0  0  0  0  0  0  0  0
   -1.6357    0.6103   -1.8356 H   0  0  0  0  0  0  0  0  0  0  0  0
   -2.6606    0.8047   -0.3529 H   0  0  0  0  0  0  0  0  0  0  0  0
   -0.3029    2.0774   -0.6388 H   0  0  0  0  0  0  0  0  0  0  0  0
   -0.2178    0.9276    1.8559 H   0  0  0  0  0  0  0  0  0  0  0  0
  1  2  1  0
  2  3  1  0
  3  4  1  0
  4  5  1  0
  4  6  1  0
  6  7  1  0
  7  8  1  0
  8  9  1  0
  8  3  1  0
  1 10  1  0
  2 11  1  0
  2 12  1  0
  3 13  1  0
  4 14  1  0
  5 15  1  0
  6 16  1  0
  6 17  1  0
  7 18  1  0
  7 19  1  0
  8 20  1  0
  9 21  1  0
M  END
