
     RDKit          3D

 19 20  0  0  0  0  0  0  0  0999 V2000
    1.4727    0.6876   -1.2223 O   0  0  0  0  0  0  0  0  0  0  0  0
    1.8638   -0.0303   -0.1209 C   0  0  0  0  0  0  0  0  0  0  0  0
    0.7353   -0.4577    0.7662 C   0  0  0  0  0  0  0  0  0  0  0  0
   -0.0268    0.6685    1.2967 C   0  0  0  0  0  0  0  0  0  0  0  0
   -1.0600    1.1266    0.6231 C   0  0  0  0  0  0  0  0  0  0  0  0
   -1.5117    0.5569   -0.6751 C   0  0  0  0  0  0  0  0  0  0  0  0
   -1.0969   -0.8600   -0.8264 C   0  0  0  0  0  0  0  0  0  0  0  0
   -1.4648   -1.5921    0.4152 O   0  0  0  0  0  0  0  0  0  0  0  0
   -0.1485   -1.4334    0.0008 C   0  0  0  0  0  0  0  0  0  0  0  0
    1.3318    1.6338   -1.0412 H   0  0  0  0  0  0  0  0  0  0  0  0
    2.4465   -0.9078   -0.4585 H   0  0  0  0  0  0  0  0  0  0  0  0
    2.5715    0.5789    0.5031 H   0  0  0  0  0  0  0  0  0  0  0  0
    1.1974   -1.0747    1.5913 H   0  0  0  0  0  0  0  0  0  0  0  0
    0.2692    1.1132    2.2404 H   0  0  0  0  0  0  0  0  0  0  0  0
   -1.6073    1.9627    1.0398 H   0  0  0  0  0  0  0  0  0  0  0  0
   -2.6414    0.5676   -0.6257 H   0  0  0  0  0  0  0  0  0  0  0  0
   -1.2126    1.1992   -1.5156 H   0  0  0  0  0  0  0  0  0  0  0  0
   -1.4824   -1.3720   -1.7409 H   0  0  0  0  0  0  0  0  0  0  0  0
    0.3641   -2.3669   -0.2499 H   0  0  0  0  0  0  0  0  0  0  0  0
  1  2  1  0
  2  3  1  0
  3  4  1  0
  4  5  2  0
  5  6  1  0
  6  7  1  0
  7  8  1  0
  8  9  1  0
  9  3  1  0
  9  7  1  0
  1 10  1  0
  2 11  1  0
  2 12  1  0
  3 13  1  0
  4 14  1  0
  5 15  1  0
  6 16  1  0
  6 17  1  0
  7 18  1  0
  9 19  1  0
M  END
