
     RDKit          3D

 21 22  0  0  0  0  0  0  0  0999 V2000
    3.0990    0.7815    0.5519 O   0  0  0  0  0  0  0  0  0  0  0  0
    2.2313    0.6175   -0.5470 C   0  0  0  0  0  0  0  0  0  0  0  0
    0.9077    0.1411   -0.0624 C   0  0  0  0  0  0  0  0  0  0  0  0
   -0.2574    0.7303   -0.1998 C   0  0  0  0  0  0  0  0  0  0  0  0
   -1.4159    1.6034   -0.4977 C   0  0  0  0  0  0  0  0  0  0  0  0
   -2.1764    0.2629   -0.6581 C   0  0  0  0  0  0  0  0  0  0  0  0
   -1.2982   -0.1385    0.4999 C   0  0  0  0  0  0  0  0  0  0  0  0
   -0.6928   -1.5152    0.4750 C   0  0  0  0  0  0  0  0  0  0  0  0
    0.7795   -1.1752    0.6701 C   0  0  0  0  0  0  0  0  0  0  0  0
    3.3222   -0.0764    0.9520 H   0  0  0  0  0  0  0  0  0  0  0  0
    2.1776    1.5117   -1.1637 H   0  0  0  0  0  0  0  0  0  0  0  0
    2.6469   -0.2085   -1.1736 H   0  0  0  0  0  0  0  0  0  0  0  0
   -1.7813    2.0923    0.4039 H   0  0  0  0  0  0  0  0  0  0  0  0
   -1.3718    2.1859   -1.4237 H   0  0  0  0  0  0  0  0  0  0  0  0
   -1.8828   -0.2860   -1.5731 H   0  0  0  0  0  0  0  0  0  0  0  0
   -3.2448    0.3356   -0.4489 H   0  0  0  0  0  0  0  0  0  0  0  0
   -1.5550    0.2635    1.4802 H   0  0  0  0  0  0  0  0  0  0  0  0
   -1.0179   -2.0383    1.3870 H   0  0  0  0  0  0  0  0  0  0  0  0
   -0.8885   -2.0765   -0.4452 H   0  0  0  0  0  0  0  0  0  0  0  0
    1.3437   -1.9107    0.0649 H   0  0  0  0  0  0  0  0  0  0  0  0
    1.0753   -1.1003    1.7084 H   0  0  0  0  0  0  0  0  0  0  0  0
  1  2  1  0
  2  3  1  0
  3  4  2  0
  4  5  1  0
  5  6  1  0
  6  7  1  0
  7  8  1  0
  8  9  1  0
  9  3  1  0
  7  4  1  0
  1 10  1  0
  2 11  1  0
  2 12  1  0
  5 13  1  0
  5 14  1  0
  6 15  1  0
  6 16  1  0
  7 17  1  0
  8 18  1  0
  8 19  1  0
  9 20  1  0
  9 21  1  0
M  END
