
     RDKit          3D

 17 18  0  0  0  0  0  0  0  0999 V2000
    1.9689    0.5525   -1.1200 O   0  0  0  0  0  0  0  0  0  0  0  0
    1.6375   -0.5864   -0.4257 C   0  0  0  0  0  0  0  0  0  0  0  0
    0.3214   -0.6296    0.2374 C   0  0  0  0  0  0  0  0  0  0  0  0
   -0.9387   -0.5049   -0.5298 C   0  0  0  0  0  0  0  0  0  0  0  0
   -0.7340    0.9596   -0.5536 C   0  0  0  0  0  0  0  0  0  0  0  0
   -0.2844    0.5944    0.8039 C   0  0  0  0  0  0  0  0  0  0  0  0
   -1.5680   -0.2520    0.8357 C   0  0  0  0  0  0  0  0  0  0  0  0
    2.1826    1.2554   -0.4311 H   0  0  0  0  0  0  0  0  0  0  0  0
    1.8496   -1.4793   -1.0647 H   0  0  0  0  0  0  0  0  0  0  0  0
    2.4204   -0.6694    0.3902 H   0  0  0  0  0  0  0  0  0  0  0  0
    0.1977   -1.4794    0.9761 H   0  0  0  0  0  0  0  0  0  0  0  0
   -1.3156   -1.1103   -1.2319 H   0  0  0  0  0  0  0  0  0  0  0  0
   -0.0593    1.4174   -1.2742 H   0  0  0  0  0  0  0  0  0  0  0  0
   -1.7361    1.5168   -0.5676 H   0  0  0  0  0  0  0  0  0  0  0  0
    0.0181    1.1673    1.5636 H   0  0  0  0  0  0  0  0  0  0  0  0
   -1.4614   -1.0744    1.5556 H   0  0  0  0  0  0  0  0  0  0  0  0
   -2.4986    0.3222    0.8361 H   0  0  0  0  0  0  0  0  0  0  0  0
  1  2  1  0
  2  3  1  0
  3  4  1  0
  4  5  1  0
  5  6  1  0
  6  7  1  0
  6  3  1  0
  7  4  1  0
  1  8  1  0
  2  9  1  0
  2 10  1  0
  3 11  1  0
  4 12  1  0
  5 13  1  0
  5 14  1  0
  6 15  1  0
  7 16  1  0
  7 17  1  0
M  END
