
     RDKit          3D

 21 21  0  0  0  0  0  0  0  0999 V2000
    2.7352   -0.4719   -0.9079 O   0  0  0  0  0  0  0  0  0  0  0  0
    1.9753   -0.1837    0.2056 C   0  0  0  0  0  0  0  0  0  0  0  0
    0.9700    0.9239   -0.0298 C   0  0  0  0  0  0  0  0  0  0  0  0
    0.2320    1.1296    1.2258 C   0  0  0  0  0  0  0  0  0  0  0  0
   -0.9066    0.5952    1.6013 C   0  0  0  0  0  0  0  0  0  0  0  0
   -1.8652   -0.3449    1.0184 C   0  0  0  0  0  0  0  0  0  0  0  0
   -1.4271   -1.0658   -0.1947 C   0  0  0  0  0  0  0  0  0  0  0  0
   -0.9300   -0.1844   -1.2746 C   0  0  0  0  0  0  0  0  0  0  0  0
    0.0935    0.6547   -1.1794 C   0  0  0  0  0  0  0  0  0  0  0  0
    3.0366   -1.4149   -0.8190 H   0  0  0  0  0  0  0  0  0  0  0  0
    1.4752   -1.0849    0.5939 H   0  0  0  0  0  0  0  0  0  0  0  0
    2.6893    0.2185    0.9797 H   0  0  0  0  0  0  0  0  0  0  0  0
    1.5399    1.8737   -0.2456 H   0  0  0  0  0  0  0  0  0  0  0  0
    0.6890    1.8033    1.9179 H   0  0  0  0  0  0  0  0  0  0  0  0
   -1.2216    0.9364    2.6021 H   0  0  0  0  0  0  0  0  0  0  0  0
   -2.7967    0.2094    0.7897 H   0  0  0  0  0  0  0  0  0  0  0  0
   -2.1176   -1.0995    1.8000 H   0  0  0  0  0  0  0  0  0  0  0  0
   -2.3272   -1.5955   -0.6141 H   0  0  0  0  0  0  0  0  0  0  0  0
   -0.7057   -1.9069    0.0252 H   0  0  0  0  0  0  0  0  0  0  0  0
   -1.4260   -0.2010   -2.2477 H   0  0  0  0  0  0  0  0  0  0  0  0
    0.2877    1.2090   -2.1000 H   0  0  0  0  0  0  0  0  0  0  0  0
  1  2  1  0
  2  3  1  0
  3  4  1  0
  4  5  2  0
  5  6  1  0
  6  7  1  0
  7  8  1  0
  8  9  2  0
  9  3  1  0
  1 10  1  0
  2 11  1  0
  2 12  1  0
  3 13  1  0
  4 14  1  0
  5 15  1  0
  6 16  1  0
  6 17  1  0
  7 18  1  0
  7 19  1  0
  8 20  1  0
  9 21  1  0
M  END
