
     RDKit          3D

 17 19  0  0  0  0  0  0  0  0999 V2000
    2.8249    0.2818    0.2156 O   0  0  0  0  0  0  0  0  0  0  0  0
    1.8052    0.0434   -0.6997 C   0  0  0  0  0  0  0  0  0  0  0  0
    0.4983   -0.0254   -0.0071 C   0  0  0  0  0  0  0  0  0  0  0  0
    0.0950    1.1103    0.6991 O   0  0  0  0  0  0  0  0  0  0  0  0
   -1.2337    0.9162    1.0712 C   0  0  0  0  0  0  0  0  0  0  0  0
   -1.8099   -0.1081    0.0899 C   0  0  0  0  0  0  0  0  0  0  0  0
   -1.5199   -1.3828    0.5853 O   0  0  0  0  0  0  0  0  0  0  0  0
   -0.2010   -1.3098    0.2367 C   0  0  0  0  0  0  0  0  0  0  0  0
   -0.6765   -0.2862   -0.8487 C   0  0  0  0  0  0  0  0  0  0  0  0
    2.7467    1.2348    0.4840 H   0  0  0  0  0  0  0  0  0  0  0  0
    1.9859   -0.8805   -1.2865 H   0  0  0  0  0  0  0  0  0  0  0  0
    1.7663    0.8714   -1.4432 H   0  0  0  0  0  0  0  0  0  0  0  0
   -1.2701    0.4896    2.0977 H   0  0  0  0  0  0  0  0  0  0  0  0
   -1.7804    1.8554    1.0684 H   0  0  0  0  0  0  0  0  0  0  0  0
   -2.8028    0.0775   -0.2773 H   0  0  0  0  0  0  0  0  0  0  0  0
    0.2858   -2.2125   -0.1499 H   0  0  0  0  0  0  0  0  0  0  0  0
   -0.7139   -0.6750   -1.8353 H   0  0  0  0  0  0  0  0  0  0  0  0
  1  2  1  0
  2  3  1  0
  3  4  1  0
  4  5  1  0
  5  6  1  0
  6  7  1  0
  7  8  1  0
  8  9  1  0
  8  3  1  0
  9  3  1  0
  9  6  1  0
  1 10  1  0
  2 11  1  0
  2 12  1  0
  5 13  1  0
  5 14  1  0
  6 15  1  0
  8 16  1  0
  9 17  1  0
M  END
