
     RDKit          3D

 19 20  0  0  0  0  0  0  0  0999 V2000
    3.4057    0.4453    0.5361 O   0  0  0  0  0  0  0  0  0  0  0  0
    2.1273    0.9084    0.2103 C   0  0  0  0  0  0  0  0  0  0  0  0
    1.3866   -0.1457   -0.5572 C   0  0  0  0  0  0  0  0  0  0  0  0
    1.2587   -1.2978    0.1845 O   0  0  0  0  0  0  0  0  0  0  0  0
   -0.1182   -1.2598    0.3233 C   0  0  0  0  0  0  0  0  0  0  0  0
   -0.8353   -0.0243    0.6857 C   0  0  0  0  0  0  0  0  0  0  0  0
   -2.3394   -0.1160    0.7033 C   0  0  0  0  0  0  0  0  0  0  0  0
   -2.9113    1.1175    1.0611 O   0  0  0  0  0  0  0  0  0  0  0  0
   -0.1018   -0.0234   -0.6059 C   0  0  0  0  0  0  0  0  0  0  0  0
    3.5296   -0.5108    0.3290 H   0  0  0  0  0  0  0  0  0  0  0  0
    2.2033    1.8731   -0.3629 H   0  0  0  0  0  0  0  0  0  0  0  0
    1.6110    1.0888    1.1842 H   0  0  0  0  0  0  0  0  0  0  0  0
    1.8017   -0.2833   -1.5828 H   0  0  0  0  0  0  0  0  0  0  0  0
   -0.6601   -2.1442   -0.0023 H   0  0  0  0  0  0  0  0  0  0  0  0
   -0.4337    0.6832    1.4510 H   0  0  0  0  0  0  0  0  0  0  0  0
   -2.7245   -0.8611    1.4183 H   0  0  0  0  0  0  0  0  0  0  0  0
   -2.6923   -0.4334   -0.3163 H   0  0  0  0  0  0  0  0  0  0  0  0
   -3.8740    1.1099    0.8312 H   0  0  0  0  0  0  0  0  0  0  0  0
   -0.6334   -0.1263   -1.5713 H   0  0  0  0  0  0  0  0  0  0  0  0
  1  2  1  0
  2  3  1  0
  3  4  1  0
  4  5  1  0
  5  6  1  0
  6  7  1  0
  7  8  1  0
  6  9  1  0
  9  3  1  0
  9  5  1  0
  1 10  1  0
  2 11  1  0
  2 12  1  0
  3 13  1  0
  5 14  1  0
  6 15  1  0
  7 16  1  0
  7 17  1  0
  8 18  1  0
  9 19  1  0
M  END
