
     RDKit          3D

 21 21  0  0  0  0  0  0  0  0999 V2000
    3.1202   -0.1674    0.0733 O   0  0  0  0  0  0  0  0  0  0  0  0
    2.0511   -0.6967   -0.6370 C   0  0  0  0  0  0  0  0  0  0  0  0
    0.7539   -0.4092    0.0904 C   0  0  0  0  0  0  0  0  0  0  0  0
    0.5972    1.0858    0.2417 C   0  0  0  0  0  0  0  0  0  0  0  0
   -0.8052    1.4525   -0.2574 C   0  0  0  0  0  0  0  0  0  0  0  0
   -1.7438    1.0654    0.6596 O   0  0  0  0  0  0  0  0  0  0  0  0
   -2.2953   -0.1708    0.4582 C   0  0  0  0  0  0  0  0  0  0  0  0
   -1.3012   -1.2754    0.2639 C   0  0  0  0  0  0  0  0  0  0  0  0
   -0.2932   -0.9504   -0.6444 O   0  0  0  0  0  0  0  0  0  0  0  0
    3.4548    0.6703   -0.3382 H   0  0  0  0  0  0  0  0  0  0  0  0
    2.1216   -1.7674   -0.8241 H   0  0  0  0  0  0  0  0  0  0  0  0
    2.0000   -0.1889   -1.6212 H   0  0  0  0  0  0  0  0  0  0  0  0
    0.7591   -0.8867    1.0819 H   0  0  0  0  0  0  0  0  0  0  0  0
    1.3727    1.6133   -0.3531 H   0  0  0  0  0  0  0  0  0  0  0  0
    0.6249    1.4113    1.3072 H   0  0  0  0  0  0  0  0  0  0  0  0
   -0.8217    2.5581   -0.3436 H   0  0  0  0  0  0  0  0  0  0  0  0
   -0.9649    1.0443   -1.2728 H   0  0  0  0  0  0  0  0  0  0  0  0
   -2.8743   -0.4265    1.3939 H   0  0  0  0  0  0  0  0  0  0  0  0
   -3.0605   -0.1843   -0.3517 H   0  0  0  0  0  0  0  0  0  0  0  0
   -0.8604   -1.6254    1.2360 H   0  0  0  0  0  0  0  0  0  0  0  0
   -1.8351   -2.1520   -0.1626 H   0  0  0  0  0  0  0  0  0  0  0  0
  1  2  1  0
  2  3  1  0
  3  4  1  0
  4  5  1  0
  5  6  1  0
  6  7  1  0
  7  8  1  0
  8  9  1  0
  9  3  1  0
  1 10  1  0
  2 11  1  0
  2 12  1  0
  3 13  1  0
  4 14  1  0
  4 15  1  0
  5 16  1  0
  5 17  1  0
  7 18  1  0
  7 19  1  0
  8 20  1  0
  8 21  1  0
M  END
