
     RDKit          3D

 19 20  0  0  0  0  0  0  0  0999 V2000
   -3.1771   -0.3093    0.2332 O   0  0  0  0  0  0  0  0  0  0  0  0
   -2.0520    0.1574    0.9036 C   0  0  0  0  0  0  0  0  0  0  0  0
   -0.8473   -0.5976    0.3203 C   0  0  0  0  0  0  0  0  0  0  0  0
    0.4110   -0.2691    0.8677 C   0  0  0  0  0  0  0  0  0  0  0  0
    1.1742    0.8594    0.9137 O   0  0  0  0  0  0  0  0  0  0  0  0
    2.1348    0.5248   -0.0802 C   0  0  0  0  0  0  0  0  0  0  0  0
    1.3342   -0.2345   -1.1587 C   0  0  0  0  0  0  0  0  0  0  0  0
   -0.0306    0.0176   -0.6294 C   0  0  0  0  0  0  0  0  0  0  0  0
   -0.3583    1.3793   -0.8969 O   0  0  0  0  0  0  0  0  0  0  0  0
   -3.0227   -0.1518   -0.7310 H   0  0  0  0  0  0  0  0  0  0  0  0
   -1.9469    1.2463    0.7722 H   0  0  0  0  0  0  0  0  0  0  0  0
   -2.1960   -0.1326    1.9798 H   0  0  0  0  0  0  0  0  0  0  0  0
   -1.1208   -1.6775    0.1797 H   0  0  0  0  0  0  0  0  0  0  0  0
    1.1127   -1.1514    1.0059 H   0  0  0  0  0  0  0  0  0  0  0  0
    2.8259   -0.2097    0.3753 H   0  0  0  0  0  0  0  0  0  0  0  0
    2.6200    1.4053   -0.4947 H   0  0  0  0  0  0  0  0  0  0  0  0
    1.6228   -1.2990   -1.1895 H   0  0  0  0  0  0  0  0  0  0  0  0
    1.4979    0.2488   -2.1428 H   0  0  0  0  0  0  0  0  0  0  0  0
    0.0182    1.9735   -0.2284 H   0  0  0  0  0  0  0  0  0  0  0  0
  1  2  1  0
  2  3  1  0
  3  4  1  0
  4  5  1  0
  5  6  1  0
  6  7  1  0
  7  8  1  0
  8  9  1  0
  8  3  1  0
  8  4  1  0
  1 10  1  0
  2 11  1  0
  2 12  1  0
  3 13  1  0
  4 14  1  0
  6 15  1  0
  6 16  1  0
  7 17  1  0
  7 18  1  0
  9 19  1  0
M  END
