
     RDKit          3D

 21 23  0  0  0  0  0  0  0  0999 V2000
    3.1775    0.4757   -1.3199 O   0  0  0  0  0  0  0  0  0  0  0  0
    2.0721   -0.3601   -1.1268 C   0  0  0  0  0  0  0  0  0  0  0  0
    1.5324   -0.2472    0.2823 C   0  0  0  0  0  0  0  0  0  0  0  0
    0.3693   -1.0829    0.5956 C   0  0  0  0  0  0  0  0  0  0  0  0
   -0.7257   -1.0873   -0.4827 C   0  0  0  0  0  0  0  0  0  0  0  0
   -0.9912    0.2970   -0.0983 C   0  0  0  0  0  0  0  0  0  0  0  0
   -2.3024    0.5445    0.6701 C   0  0  0  0  0  0  0  0  0  0  0  0
   -1.9121    1.2480   -0.5991 C   0  0  0  0  0  0  0  0  0  0  0  0
    0.2909    0.4794    0.5829 C   0  0  0  0  0  0  0  0  0  0  0  0
    3.2932    1.1159   -0.5548 H   0  0  0  0  0  0  0  0  0  0  0  0
    1.3304   -0.0895   -1.8934 H   0  0  0  0  0  0  0  0  0  0  0  0
    2.4648   -1.4034   -1.2490 H   0  0  0  0  0  0  0  0  0  0  0  0
    2.3379   -0.2242    1.0472 H   0  0  0  0  0  0  0  0  0  0  0  0
    0.1614   -1.5347    1.5630 H   0  0  0  0  0  0  0  0  0  0  0  0
   -0.3036   -1.2561   -1.5121 H   0  0  0  0  0  0  0  0  0  0  0  0
   -1.5280   -1.8217   -0.2517 H   0  0  0  0  0  0  0  0  0  0  0  0
   -2.1244    0.9894    1.6481 H   0  0  0  0  0  0  0  0  0  0  0  0
   -3.0547   -0.2837    0.6299 H   0  0  0  0  0  0  0  0  0  0  0  0
   -1.7325    2.3248   -0.4937 H   0  0  0  0  0  0  0  0  0  0  0  0
   -2.5748    0.9658   -1.4676 H   0  0  0  0  0  0  0  0  0  0  0  0
    0.2198    0.9505    1.6065 H   0  0  0  0  0  0  0  0  0  0  0  0
  1  2  1  0
  2  3  1  0
  3  4  1  0
  4  5  1  0
  5  6  1  0
  6  7  1  0
  7  8  1  0
  6  9  1  0
  9  3  1  0
  9  4  1  0
  8  6  1  0
  1 10  1  0
  2 11  1  0
  2 12  1  0
  3 13  1  0
  4 14  1  0
  5 15  1  0
  5 16  1  0
  7 17  1  0
  7 18  1  0
  8 19  1  0
  8 20  1  0
  9 21  1  0
M  END
