
     RDKit          3D

 18 18  0  0  0  0  0  0  0  0999 V2000
    1.5536    0.3661    1.1125 O   0  0  0  0  0  0  0  0  0  0  0  0
    1.5049    0.3073   -0.2581 C   0  0  0  0  0  0  0  0  0  0  0  0
    0.1925   -0.0540   -0.8505 C   0  0  0  0  0  0  0  0  0  0  0  0
   -0.9751    0.8198   -0.5726 C   0  0  0  0  0  0  0  0  0  0  0  0
   -0.7190    2.1432   -0.2619 O   0  0  0  0  0  0  0  0  0  0  0  0
   -1.2861   -0.0540    0.6251 C   0  0  0  0  0  0  0  0  0  0  0  0
   -0.5093   -1.1492   -0.0728 C   0  0  0  0  0  0  0  0  0  0  0  0
    0.3964   -1.8351    0.7266 O   0  0  0  0  0  0  0  0  0  0  0  0
    2.5105    0.3844    1.3808 H   0  0  0  0  0  0  0  0  0  0  0  0
    1.8653    1.2889   -0.6852 H   0  0  0  0  0  0  0  0  0  0  0  0
    2.2664   -0.4331   -0.5834 H   0  0  0  0  0  0  0  0  0  0  0  0
    0.3227   -0.3630   -1.9131 H   0  0  0  0  0  0  0  0  0  0  0  0
   -1.7487    0.7619   -1.3718 H   0  0  0  0  0  0  0  0  0  0  0  0
   -1.3132    2.3656    0.5220 H   0  0  0  0  0  0  0  0  0  0  0  0
   -0.7424    0.3039    1.5081 H   0  0  0  0  0  0  0  0  0  0  0  0
   -2.3629   -0.2586    0.7648 H   0  0  0  0  0  0  0  0  0  0  0  0
   -1.1816   -1.7904   -0.6737 H   0  0  0  0  0  0  0  0  0  0  0  0
    0.2259   -2.8035    0.6032 H   0  0  0  0  0  0  0  0  0  0  0  0
  1  2  1  0
  2  3  1  0
  3  4  1  0
  4  5  1  0
  4  6  1  0
  6  7  1  0
  7  8  1  0
  7  3  1  0
  1  9  1  0
  2 10  1  0
  2 11  1  0
  3 12  1  0
  4 13  1  0
  5 14  1  0
  6 15  1  0
  6 16  1  0
  7 17  1  0
  8 18  1  0
M  END
