
     RDKit          3D

 19 19  0  0  0  0  0  0  0  0999 V2000
    2.9898    0.9240    0.0762 O   0  0  0  0  0  0  0  0  0  0  0  0
    2.2846   -0.2027   -0.3305 C   0  0  0  0  0  0  0  0  0  0  0  0
    0.8346   -0.0457   -0.1692 C   0  0  0  0  0  0  0  0  0  0  0  0
    0.3371    1.0822    0.3193 C   0  0  0  0  0  0  0  0  0  0  0  0
   -1.0795    1.4432    0.5606 C   0  0  0  0  0  0  0  0  0  0  0  0
   -2.1699    0.7172    0.3671 C   0  0  0  0  0  0  0  0  0  0  0  0
   -2.1858   -0.6731   -0.1569 C   0  0  0  0  0  0  0  0  0  0  0  0
   -1.1904   -0.8712   -1.1308 O   0  0  0  0  0  0  0  0  0  0  0  0
    0.0245   -1.2189   -0.5875 C   0  0  0  0  0  0  0  0  0  0  0  0
    2.9922    0.9689    1.0825 H   0  0  0  0  0  0  0  0  0  0  0  0
    2.6411   -1.0573    0.2981 H   0  0  0  0  0  0  0  0  0  0  0  0
    2.5820   -0.4717   -1.3700 H   0  0  0  0  0  0  0  0  0  0  0  0
    1.0768    1.8097    0.5627 H   0  0  0  0  0  0  0  0  0  0  0  0
   -1.2715    2.4219    0.9446 H   0  0  0  0  0  0  0  0  0  0  0  0
   -3.1434    1.1234    0.5929 H   0  0  0  0  0  0  0  0  0  0  0  0
   -3.1446   -0.8313   -0.6637 H   0  0  0  0  0  0  0  0  0  0  0  0
   -1.9962   -1.3969    0.6689 H   0  0  0  0  0  0  0  0  0  0  0  0
    0.5695   -1.8273   -1.3565 H   0  0  0  0  0  0  0  0  0  0  0  0
   -0.1508   -1.8943    0.2923 H   0  0  0  0  0  0  0  0  0  0  0  0
  1  2  1  0
  2  3  1  0
  3  4  2  0
  4  5  1  0
  5  6  2  0
  6  7  1  0
  7  8  1  0
  8  9  1  0
  9  3  1  0
  1 10  1  0
  2 11  1  0
  2 12  1  0
  4 13  1  0
  5 14  1  0
  6 15  1  0
  7 16  1  0
  7 17  1  0
  9 18  1  0
  9 19  1  0
M  END
