
     RDKit          3D

 19 19  0  0  0  0  0  0  0  0999 V2000
    2.9535   -0.7280   -0.0352 O   0  0  0  0  0  0  0  0  0  0  0  0
    2.1973    0.4429   -0.2378 C   0  0  0  0  0  0  0  0  0  0  0  0
    0.7609    0.1586    0.1134 C   0  0  0  0  0  0  0  0  0  0  0  0
   -0.0282    1.4089   -0.0756 C   0  0  0  0  0  0  0  0  0  0  0  0
   -1.3536    1.4319   -0.0066 C   0  0  0  0  0  0  0  0  0  0  0  0
   -2.3272    0.3705    0.2447 C   0  0  0  0  0  0  0  0  0  0  0  0
   -2.0289   -0.9206    0.2545 C   0  0  0  0  0  0  0  0  0  0  0  0
   -0.7425   -1.6022    0.0343 C   0  0  0  0  0  0  0  0  0  0  0  0
    0.1899   -0.8332   -0.6316 O   0  0  0  0  0  0  0  0  0  0  0  0
    3.5696   -0.8878   -0.8104 H   0  0  0  0  0  0  0  0  0  0  0  0
    2.6351    1.1975    0.4433 H   0  0  0  0  0  0  0  0  0  0  0  0
    2.2445    0.7155   -1.3018 H   0  0  0  0  0  0  0  0  0  0  0  0
    0.7211   -0.0505    1.2205 H   0  0  0  0  0  0  0  0  0  0  0  0
    0.5034    2.3291   -0.2761 H   0  0  0  0  0  0  0  0  0  0  0  0
   -1.8067    2.4208   -0.1655 H   0  0  0  0  0  0  0  0  0  0  0  0
   -3.3543    0.6518    0.4346 H   0  0  0  0  0  0  0  0  0  0  0  0
   -2.8608   -1.5830    0.4560 H   0  0  0  0  0  0  0  0  0  0  0  0
   -0.3104   -2.0361    0.9696 H   0  0  0  0  0  0  0  0  0  0  0  0
   -0.9626   -2.4859   -0.6303 H   0  0  0  0  0  0  0  0  0  0  0  0
  1  2  1  0
  2  3  1  0
  3  4  1  0
  4  5  2  0
  5  6  1  0
  6  7  2  0
  7  8  1  0
  8  9  1  0
  9  3  1  0
  1 10  1  0
  2 11  1  0
  2 12  1  0
  3 13  1  0
  4 14  1  0
  5 15  1  0
  6 16  1  0
  7 17  1  0
  8 18  1  0
  8 19  1  0
M  END
