
     RDKit          3D

 21 23  0  0  0  0  0  0  0  0999 V2000
    2.9814   -0.6028    0.2984 O   0  0  0  0  0  0  0  0  0  0  0  0
    2.1295    0.1182   -0.5497 C   0  0  0  0  0  0  0  0  0  0  0  0
    0.8766    0.4177    0.2023 C   0  0  0  0  0  0  0  0  0  0  0  0
   -0.1406    1.1847   -0.5634 C   0  0  0  0  0  0  0  0  0  0  0  0
   -1.4383    0.8241    0.1177 C   0  0  0  0  0  0  0  0  0  0  0  0
   -2.0391   -0.3805   -0.6254 C   0  0  0  0  0  0  0  0  0  0  0  0
   -1.1406   -1.2387    0.2236 C   0  0  0  0  0  0  0  0  0  0  0  0
    0.1540   -0.7632    0.7352 C   0  0  0  0  0  0  0  0  0  0  0  0
   -1.1048   -0.1541    1.1972 C   0  0  0  0  0  0  0  0  0  0  0  0
    3.4018   -1.3672   -0.1522 H   0  0  0  0  0  0  0  0  0  0  0  0
    1.9879   -0.4156   -1.4878 H   0  0  0  0  0  0  0  0  0  0  0  0
    2.6419    1.1014   -0.7156 H   0  0  0  0  0  0  0  0  0  0  0  0
    1.1741    1.0547    1.0872 H   0  0  0  0  0  0  0  0  0  0  0  0
    0.0557    2.2761   -0.5255 H   0  0  0  0  0  0  0  0  0  0  0  0
   -0.1555    0.9100   -1.6519 H   0  0  0  0  0  0  0  0  0  0  0  0
   -2.1296    1.6237    0.3322 H   0  0  0  0  0  0  0  0  0  0  0  0
   -1.8570   -0.3783   -1.7003 H   0  0  0  0  0  0  0  0  0  0  0  0
   -3.1186   -0.4306   -0.3442 H   0  0  0  0  0  0  0  0  0  0  0  0
   -1.4642   -2.2417    0.4918 H   0  0  0  0  0  0  0  0  0  0  0  0
    0.6731   -1.4005    1.4445 H   0  0  0  0  0  0  0  0  0  0  0  0
   -1.4879   -0.1373    2.1860 H   0  0  0  0  0  0  0  0  0  0  0  0
  1  2  1  0
  2  3  1  0
  3  4  1  0
  4  5  1  0
  5  6  1  0
  6  7  1  0
  7  8  1  0
  8  9  1  0
  8  3  1  0
  9  5  1  0
  9  7  1  0
  1 10  1  0
  2 11  1  0
  2 12  1  0
  3 13  1  0
  4 14  1  0
  4 15  1  0
  5 16  1  0
  6 17  1  0
  6 18  1  0
  7 19  1  0
  8 20  1  0
  9 21  1  0
M  END
