
     RDKit          3D

 19 20  0  0  0  0  0  0  0  0999 V2000
   -2.7777   -1.0059   -0.2154 O   0  0  0  0  0  0  0  0  0  0  0  0
   -1.9509   -0.1003   -0.8813 C   0  0  0  0  0  0  0  0  0  0  0  0
   -0.5661   -0.1032   -0.2517 C   0  0  0  0  0  0  0  0  0  0  0  0
   -0.4878    0.7832    0.9914 C   0  0  0  0  0  0  0  0  0  0  0  0
    0.2157    1.1169   -0.3500 C   0  0  0  0  0  0  0  0  0  0  0  0
    1.6702    0.9732   -0.3379 C   0  0  0  0  0  0  0  0  0  0  0  0
    2.2092   -0.2075   -0.1493 C   0  0  0  0  0  0  0  0  0  0  0  0
    1.3600   -1.3845    0.0496 C   0  0  0  0  0  0  0  0  0  0  0  0
    0.0704   -1.2955   -0.2814 O   0  0  0  0  0  0  0  0  0  0  0  0
   -2.9741   -0.6416    0.6795 H   0  0  0  0  0  0  0  0  0  0  0  0
   -1.8132   -0.3501   -1.9417 H   0  0  0  0  0  0  0  0  0  0  0  0
   -2.4340    0.8895   -0.8371 H   0  0  0  0  0  0  0  0  0  0  0  0
    0.1596    0.4495    1.8128 H   0  0  0  0  0  0  0  0  0  0  0  0
   -1.3447    1.3931    1.2712 H   0  0  0  0  0  0  0  0  0  0  0  0
   -0.2163    1.9718   -0.9159 H   0  0  0  0  0  0  0  0  0  0  0  0
    2.3064    1.8269   -0.4823 H   0  0  0  0  0  0  0  0  0  0  0  0
    3.2998   -0.3677   -0.1316 H   0  0  0  0  0  0  0  0  0  0  0  0
    1.8354   -2.2336   -0.5224 H   0  0  0  0  0  0  0  0  0  0  0  0
    1.4382   -1.7141    1.1276 H   0  0  0  0  0  0  0  0  0  0  0  0
  1  2  1  0
  2  3  1  0
  3  4  1  0
  4  5  1  0
  5  6  1  0
  6  7  2  0
  7  8  1  0
  8  9  1  0
  5  3  1  0
  9  3  1  0
  1 10  1  0
  2 11  1  0
  2 12  1  0
  4 13  1  0
  4 14  1  0
  5 15  1  0
  6 16  1  0
  7 17  1  0
  8 18  1  0
  8 19  1  0
M  END
