
     RDKit          3D

 23 24  0  0  0  0  0  0  0  0999 V2000
   -2.5392    1.6867   -0.3923 O   0  0  0  0  0  0  0  0  0  0  0  0
   -1.9447    0.5347   -0.9427 C   0  0  0  0  0  0  0  0  0  0  0  0
   -0.7738    0.1684   -0.0233 C   0  0  0  0  0  0  0  0  0  0  0  0
    0.3181    1.1663    0.1642 C   0  0  0  0  0  0  0  0  0  0  0  0
    1.5347    0.9044   -0.6819 C   0  0  0  0  0  0  0  0  0  0  0  0
    2.0054   -0.5082   -0.6459 C   0  0  0  0  0  0  0  0  0  0  0  0
    1.1643   -1.3872    0.2500 C   0  0  0  0  0  0  0  0  0  0  0  0
   -0.3075   -1.2342   -0.0304 C   0  0  0  0  0  0  0  0  0  0  0  0
   -1.1581   -0.7742    1.0840 C   0  0  0  0  0  0  0  0  0  0  0  0
   -2.5486    1.5431    0.5861 H   0  0  0  0  0  0  0  0  0  0  0  0
   -1.6036    0.7068   -1.9819 H   0  0  0  0  0  0  0  0  0  0  0  0
   -2.7133   -0.2384   -0.9440 H   0  0  0  0  0  0  0  0  0  0  0  0
    0.6240    1.2855    1.2282 H   0  0  0  0  0  0  0  0  0  0  0  0
   -0.0825    2.1644   -0.1399 H   0  0  0  0  0  0  0  0  0  0  0  0
    2.3597    1.5508   -0.2627 H   0  0  0  0  0  0  0  0  0  0  0  0
    1.3781    1.2067   -1.7509 H   0  0  0  0  0  0  0  0  0  0  0  0
    2.0182   -0.9797   -1.6539 H   0  0  0  0  0  0  0  0  0  0  0  0
    3.0637   -0.6152   -0.2696 H   0  0  0  0  0  0  0  0  0  0  0  0
    1.4338   -1.2051    1.2883 H   0  0  0  0  0  0  0  0  0  0  0  0
    1.4383   -2.4386    0.0071 H   0  0  0  0  0  0  0  0  0  0  0  0
   -0.7692   -1.8870   -0.7980 H   0  0  0  0  0  0  0  0  0  0  0  0
   -2.1984   -1.1281    1.1679 H   0  0  0  0  0  0  0  0  0  0  0  0
   -0.6996   -0.5218    2.0680 H   0  0  0  0  0  0  0  0  0  0  0  0
  1  2  1  0
  2  3  1  0
  3  4  1  0
  4  5  1  0
  5  6  1  0
  6  7  1  0
  7  8  1  0
  8  9  1  0
  8  3  1  0
  9  3  1  0
  1 10  1  0
  2 11  1  0
  2 12  1  0
  4 13  1  0
  4 14  1  0
  5 15  1  0
  5 16  1  0
  6 17  1  0
  6 18  1  0
  7 19  1  0
  7 20  1  0
  8 21  1  0
  9 22  1  0
  9 23  1  0
M  END
