
     RDKit          3D

 19 20  0  0  0  0  0  0  0  0999 V2000
    2.9788    0.3315    0.4764 O   0  0  0  0  0  0  0  0  0  0  0  0
    2.1607    0.4906   -0.6607 C   0  0  0  0  0  0  0  0  0  0  0  0
    0.8197   -0.0276   -0.2774 C   0  0  0  0  0  0  0  0  0  0  0  0
    0.1060   -1.0131   -0.7959 C   0  0  0  0  0  0  0  0  0  0  0  0
   -1.1901   -1.2045   -0.1104 C   0  0  0  0  0  0  0  0  0  0  0  0
   -2.3103   -0.7532   -0.7610 O   0  0  0  0  0  0  0  0  0  0  0  0
   -2.2542    0.4920   -0.1488 C   0  0  0  0  0  0  0  0  0  0  0  0
   -1.2889   -0.0592    0.8641 C   0  0  0  0  0  0  0  0  0  0  0  0
    0.0621    0.5934    0.8695 C   0  0  0  0  0  0  0  0  0  0  0  0
    3.2948   -0.6243    0.4443 H   0  0  0  0  0  0  0  0  0  0  0  0
    2.0472    1.5916   -0.8864 H   0  0  0  0  0  0  0  0  0  0  0  0
    2.5884    0.0142   -1.5393 H   0  0  0  0  0  0  0  0  0  0  0  0
    0.4294   -1.6163   -1.6296 H   0  0  0  0  0  0  0  0  0  0  0  0
   -1.3520   -2.1994    0.3506 H   0  0  0  0  0  0  0  0  0  0  0  0
   -3.1832    0.8059    0.3433 H   0  0  0  0  0  0  0  0  0  0  0  0
   -1.7906    1.2648   -0.8178 H   0  0  0  0  0  0  0  0  0  0  0  0
   -1.6957   -0.2955    1.8561 H   0  0  0  0  0  0  0  0  0  0  0  0
    0.6019    0.5280    1.8124 H   0  0  0  0  0  0  0  0  0  0  0  0
   -0.0238    1.6809    0.6106 H   0  0  0  0  0  0  0  0  0  0  0  0
  1  2  1  0
  2  3  1  0
  3  4  2  0
  4  5  1  0
  5  6  1  0
  6  7  1  0
  7  8  1  0
  8  9  1  0
  9  3  1  0
  8  5  1  0
  1 10  1  0
  2 11  1  0
  2 12  1  0
  4 13  1  0
  5 14  1  0
  7 15  1  0
  7 16  1  0
  8 17  1  0
  9 18  1  0
  9 19  1  0
M  END
