
     RDKit          3D

 18 19  0  0  0  0  0  0  0  0999 V2000
    2.8892   -0.0588   -0.5225 O   0  0  0  0  0  0  0  0  0  0  0  0
    1.9032   -0.8672    0.0467 C   0  0  0  0  0  0  0  0  0  0  0  0
    0.7160   -0.0530    0.4750 C   0  0  0  0  0  0  0  0  0  0  0  0
    0.0292    0.7096   -0.6419 C   0  0  0  0  0  0  0  0  0  0  0  0
   -1.2749    0.1592   -0.1415 C   0  0  0  0  0  0  0  0  0  0  0  0
   -2.3842    0.8765    0.1899 C   0  0  0  0  0  0  0  0  0  0  0  0
   -2.3385   -0.0482   -0.9655 O   0  0  0  0  0  0  0  0  0  0  0  0
   -0.5431   -0.9277    0.5469 C   0  0  0  0  0  0  0  0  0  0  0  0
    2.8445    0.8618   -0.1651 H   0  0  0  0  0  0  0  0  0  0  0  0
    2.3263   -1.3344    0.9566 H   0  0  0  0  0  0  0  0  0  0  0  0
    1.5784   -1.6544   -0.6597 H   0  0  0  0  0  0  0  0  0  0  0  0
    0.8614    0.5628    1.3747 H   0  0  0  0  0  0  0  0  0  0  0  0
    0.0442    1.8291   -0.5043 H   0  0  0  0  0  0  0  0  0  0  0  0
    0.3104    0.3959   -1.6677 H   0  0  0  0  0  0  0  0  0  0  0  0
   -2.5482    1.9355   -0.1158 H   0  0  0  0  0  0  0  0  0  0  0  0
   -3.1433    0.5589    0.9540 H   0  0  0  0  0  0  0  0  0  0  0  0
   -0.8557   -1.0768    1.5860 H   0  0  0  0  0  0  0  0  0  0  0  0
   -0.4150   -1.8686   -0.0506 H   0  0  0  0  0  0  0  0  0  0  0  0
  1  2  1  0
  2  3  1  0
  3  4  1  0
  4  5  1  0
  5  6  1  0
  6  7  1  0
  5  8  1  0
  8  3  1  0
  7  5  1  0
  1  9  1  0
  2 10  1  0
  2 11  1  0
  3 12  1  0
  4 13  1  0
  4 14  1  0
  6 15  1  0
  6 16  1  0
  8 17  1  0
  8 18  1  0
M  END
