
     RDKit          3D

 19 19  0  0  0  0  0  0  0  0999 V2000
    2.0065   -0.4926    1.0118 O   0  0  0  0  0  0  0  0  0  0  0  0
    1.9458    0.1785   -0.2030 C   0  0  0  0  0  0  0  0  0  0  0  0
    0.5587    0.1256   -0.8205 C   0  0  0  0  0  0  0  0  0  0  0  0
    0.2298   -1.1755   -1.0271 O   0  0  0  0  0  0  0  0  0  0  0  0
   -0.9606   -1.4723   -0.4414 C   0  0  0  0  0  0  0  0  0  0  0  0
   -1.4191   -0.3241    0.3798 C   0  0  0  0  0  0  0  0  0  0  0  0
   -1.3375   -0.6872    1.7311 O   0  0  0  0  0  0  0  0  0  0  0  0
   -0.4813    0.7845    0.0177 C   0  0  0  0  0  0  0  0  0  0  0  0
   -1.2055    1.7463   -0.7090 O   0  0  0  0  0  0  0  0  0  0  0  0
    2.3310    0.1195    1.7183 H   0  0  0  0  0  0  0  0  0  0  0  0
    2.3700    1.1866   -0.1799 H   0  0  0  0  0  0  0  0  0  0  0  0
    2.6026   -0.4126   -0.9075 H   0  0  0  0  0  0  0  0  0  0  0  0
    0.6307    0.6407   -1.7977 H   0  0  0  0  0  0  0  0  0  0  0  0
   -0.8567   -2.4266    0.1383 H   0  0  0  0  0  0  0  0  0  0  0  0
   -1.7165   -1.7092   -1.2374 H   0  0  0  0  0  0  0  0  0  0  0  0
   -2.4768   -0.0689    0.1189 H   0  0  0  0  0  0  0  0  0  0  0  0
   -1.4971    0.1375    2.2629 H   0  0  0  0  0  0  0  0  0  0  0  0
   -0.0513    1.3168    0.8807 H   0  0  0  0  0  0  0  0  0  0  0  0
   -0.6726    2.5330   -0.9361 H   0  0  0  0  0  0  0  0  0  0  0  0
  1  2  1  0
  2  3  1  0
  3  4  1  0
  4  5  1  0
  5  6  1  0
  6  7  1  0
  6  8  1  0
  8  9  1  0
  8  3  1  0
  1 10  1  0
  2 11  1  0
  2 12  1  0
  3 13  1  0
  5 14  1  0
  5 15  1  0
  6 16  1  0
  7 17  1  0
  8 18  1  0
  9 19  1  0
M  END
