
     RDKit          3D

 21 22  0  0  0  0  0  0  0  0999 V2000
   -3.3459   -0.0875   -0.4797 O   0  0  0  0  0  0  0  0  0  0  0  0
   -2.2469    0.5869    0.0093 C   0  0  0  0  0  0  0  0  0  0  0  0
   -1.0091    0.3742   -0.8195 C   0  0  0  0  0  0  0  0  0  0  0  0
    0.1548    1.1548   -0.2076 C   0  0  0  0  0  0  0  0  0  0  0  0
    0.4334   -0.0866    0.6317 C   0  0  0  0  0  0  0  0  0  0  0  0
    1.8695   -0.3705    0.9077 C   0  0  0  0  0  0  0  0  0  0  0  0
    2.7689   -0.5907   -0.2455 C   0  0  0  0  0  0  0  0  0  0  0  0
    2.4020   -1.6219    0.5975 O   0  0  0  0  0  0  0  0  0  0  0  0
   -0.2254   -0.8944   -0.4621 C   0  0  0  0  0  0  0  0  0  0  0  0
   -3.7734   -0.6344    0.2317 H   0  0  0  0  0  0  0  0  0  0  0  0
   -2.0690    0.3485    1.0745 H   0  0  0  0  0  0  0  0  0  0  0  0
   -2.4785    1.6763   -0.0276 H   0  0  0  0  0  0  0  0  0  0  0  0
   -1.1707    0.5315   -1.8840 H   0  0  0  0  0  0  0  0  0  0  0  0
   -0.1976    2.0267    0.3433 H   0  0  0  0  0  0  0  0  0  0  0  0
    0.9445    1.3107   -0.9658 H   0  0  0  0  0  0  0  0  0  0  0  0
   -0.1430   -0.1061    1.5820 H   0  0  0  0  0  0  0  0  0  0  0  0
    2.2896    0.0621    1.8228 H   0  0  0  0  0  0  0  0  0  0  0  0
    2.4336   -0.6872   -1.2761 H   0  0  0  0  0  0  0  0  0  0  0  0
    3.7778   -0.1373   -0.1553 H   0  0  0  0  0  0  0  0  0  0  0  0
    0.4483   -1.1227   -1.3081 H   0  0  0  0  0  0  0  0  0  0  0  0
   -0.8631   -1.7324   -0.1210 H   0  0  0  0  0  0  0  0  0  0  0  0
  1  2  1  0
  2  3  1  0
  3  4  1  0
  4  5  1  0
  5  6  1  0
  6  7  1  0
  7  8  1  0
  5  9  1  0
  9  3  1  0
  8  6  1  0
  1 10  1  0
  2 11  1  0
  2 12  1  0
  3 13  1  0
  4 14  1  0
  4 15  1  0
  5 16  1  0
  6 17  1  0
  7 18  1  0
  7 19  1  0
  9 20  1  0
  9 21  1  0
M  END
