
     RDKit          3D

 21 22  0  0  0  0  0  0  0  0999 V2000
   -2.6952   -0.3413   -0.4299 O   0  0  0  0  0  0  0  0  0  0  0  0
   -1.8757    0.6682    0.0226 C   0  0  0  0  0  0  0  0  0  0  0  0
   -0.4360    0.2898    0.0561 C   0  0  0  0  0  0  0  0  0  0  0  0
    0.4906    1.3539    0.5402 C   0  0  0  0  0  0  0  0  0  0  0  0
    1.7475    1.1254    0.0175 O   0  0  0  0  0  0  0  0  0  0  0  0
    2.0965   -0.2018    0.2697 C   0  0  0  0  0  0  0  0  0  0  0  0
    1.0467   -1.1041   -0.2904 C   0  0  0  0  0  0  0  0  0  0  0  0
    0.1268   -0.3033   -1.2247 C   0  0  0  0  0  0  0  0  0  0  0  0
   -0.1346   -1.0586    0.6932 C   0  0  0  0  0  0  0  0  0  0  0  0
   -2.7231   -0.3215   -1.4027 H   0  0  0  0  0  0  0  0  0  0  0  0
   -2.1804    0.8640    1.0928 H   0  0  0  0  0  0  0  0  0  0  0  0
   -1.9951    1.6166   -0.5097 H   0  0  0  0  0  0  0  0  0  0  0  0
    0.5394    1.3237    1.6457 H   0  0  0  0  0  0  0  0  0  0  0  0
    0.0758    2.3327    0.2504 H   0  0  0  0  0  0  0  0  0  0  0  0
    2.0798   -0.3366    1.3886 H   0  0  0  0  0  0  0  0  0  0  0  0
    3.1176   -0.4325   -0.0633 H   0  0  0  0  0  0  0  0  0  0  0  0
    1.3271   -2.0885   -0.6381 H   0  0  0  0  0  0  0  0  0  0  0  0
   -0.5850   -0.9473   -1.7430 H   0  0  0  0  0  0  0  0  0  0  0  0
    0.7323    0.3778   -1.8304 H   0  0  0  0  0  0  0  0  0  0  0  0
   -0.9103   -1.7918    0.4079 H   0  0  0  0  0  0  0  0  0  0  0  0
    0.1553   -1.0247    1.7475 H   0  0  0  0  0  0  0  0  0  0  0  0
  1  2  1  0
  2  3  1  0
  3  4  1  0
  4  5  1  0
  5  6  1  0
  6  7  1  0
  7  8  1  0
  7  9  1  0
  8  3  1  0
  9  3  1  0
  1 10  1  0
  2 11  1  0
  2 12  1  0
  4 13  1  0
  4 14  1  0
  6 15  1  0
  6 16  1  0
  7 17  1  0
  8 18  1  0
  8 19  1  0
  9 20  1  0
  9 21  1  0
M  END
