
     RDKit          3D

 21 21  0  0  0  0  0  0  0  0999 V2000
    2.9541    0.1057   -0.2737 O   0  0  0  0  0  0  0  0  0  0  0  0
    2.0572   -0.9250   -0.0820 C   0  0  0  0  0  0  0  0  0  0  0  0
    0.6218   -0.4697   -0.3853 C   0  0  0  0  0  0  0  0  0  0  0  0
    0.3686    0.7592    0.3984 C   0  0  0  0  0  0  0  0  0  0  0  0
   -0.6421    1.6970   -0.2218 C   0  0  0  0  0  0  0  0  0  0  0  0
   -1.8089    0.9264   -0.7103 C   0  0  0  0  0  0  0  0  0  0  0  0
   -2.1268   -0.3160   -0.4577 C   0  0  0  0  0  0  0  0  0  0  0  0
   -1.4079   -1.2927    0.3854 C   0  0  0  0  0  0  0  0  0  0  0  0
   -0.1815   -1.5302   -0.1739 O   0  0  0  0  0  0  0  0  0  0  0  0
    3.7148    0.0504    0.3777 H   0  0  0  0  0  0  0  0  0  0  0  0
    2.2843   -1.7957   -0.7345 H   0  0  0  0  0  0  0  0  0  0  0  0
    2.0808   -1.2224    0.9957 H   0  0  0  0  0  0  0  0  0  0  0  0
    0.6375   -0.1881   -1.4741 H   0  0  0  0  0  0  0  0  0  0  0  0
    0.1398    0.5464    1.4696 H   0  0  0  0  0  0  0  0  0  0  0  0
    1.3372    1.3426    0.4294 H   0  0  0  0  0  0  0  0  0  0  0  0
   -0.1989    2.3485   -0.9924 H   0  0  0  0  0  0  0  0  0  0  0  0
   -1.0241    2.3624    0.6030 H   0  0  0  0  0  0  0  0  0  0  0  0
   -2.4635    1.4886   -1.3558 H   0  0  0  0  0  0  0  0  0  0  0  0
   -3.0239   -0.6766   -0.9200 H   0  0  0  0  0  0  0  0  0  0  0  0
   -1.3718   -0.9317    1.4310 H   0  0  0  0  0  0  0  0  0  0  0  0
   -1.9465   -2.2789    0.4316 H   0  0  0  0  0  0  0  0  0  0  0  0
  1  2  1  0
  2  3  1  0
  3  4  1  0
  4  5  1  0
  5  6  1  0
  6  7  2  0
  7  8  1  0
  8  9  1  0
  9  3  1  0
  1 10  1  0
  2 11  1  0
  2 12  1  0
  3 13  1  0
  4 14  1  0
  4 15  1  0
  5 16  1  0
  5 17  1  0
  6 18  1  0
  7 19  1  0
  8 20  1  0
  8 21  1  0
M  END
