
     RDKit          3D

 19 21  0  0  0  0  0  0  0  0999 V2000
   -2.4972    0.0895   -0.6409 O   0  0  0  0  0  0  0  0  0  0  0  0
   -1.8836   -0.6243    0.4134 C   0  0  0  0  0  0  0  0  0  0  0  0
   -0.4168   -0.3784    0.3302 C   0  0  0  0  0  0  0  0  0  0  0  0
    0.3314   -0.7897   -0.9394 C   0  0  0  0  0  0  0  0  0  0  0  0
    1.0729    0.5200   -0.8400 C   0  0  0  0  0  0  0  0  0  0  0  0
    2.2381    0.3252    0.1359 C   0  0  0  0  0  0  0  0  0  0  0  0
    1.7024    0.1861    1.3832 O   0  0  0  0  0  0  0  0  0  0  0  0
    0.3464    0.3524    1.3532 C   0  0  0  0  0  0  0  0  0  0  0  0
    0.0128    1.0045    0.0899 C   0  0  0  0  0  0  0  0  0  0  0  0
   -3.4585   -0.1330   -0.6922 H   0  0  0  0  0  0  0  0  0  0  0  0
   -2.0869   -1.6986    0.2140 H   0  0  0  0  0  0  0  0  0  0  0  0
   -2.2581   -0.2806    1.3759 H   0  0  0  0  0  0  0  0  0  0  0  0
   -0.2898   -0.9303   -1.8217 H   0  0  0  0  0  0  0  0  0  0  0  0
    0.9461   -1.6862   -0.7054 H   0  0  0  0  0  0  0  0  0  0  0  0
    1.2841    1.0623   -1.7439 H   0  0  0  0  0  0  0  0  0  0  0  0
    2.9567    1.1654    0.0400 H   0  0  0  0  0  0  0  0  0  0  0  0
    2.7433   -0.6055   -0.1947 H   0  0  0  0  0  0  0  0  0  0  0  0
   -0.1331    0.5658    2.3137 H   0  0  0  0  0  0  0  0  0  0  0  0
   -0.6102    1.8552   -0.0712 H   0  0  0  0  0  0  0  0  0  0  0  0
  1  2  1  0
  2  3  1  0
  3  4  1  0
  4  5  1  0
  5  6  1  0
  6  7  1  0
  7  8  1  0
  8  9  1  0
  8  3  1  0
  9  3  1  0
  9  5  1  0
  1 10  1  0
  2 11  1  0
  2 12  1  0
  4 13  1  0
  4 14  1  0
  5 15  1  0
  6 16  1  0
  6 17  1  0
  8 18  1  0
  9 19  1  0
M  END
