
     RDKit          3D

 21 22  0  0  0  0  0  0  0  0999 V2000
    2.5238   -0.6126    0.8741 O   0  0  0  0  0  0  0  0  0  0  0  0
    2.1746   -0.2453   -0.4075 C   0  0  0  0  0  0  0  0  0  0  0  0
    0.6510   -0.1528   -0.5654 C   0  0  0  0  0  0  0  0  0  0  0  0
    0.0762   -1.4720   -0.2677 C   0  0  0  0  0  0  0  0  0  0  0  0
   -1.1255   -1.5703    0.2387 C   0  0  0  0  0  0  0  0  0  0  0  0
   -1.9895   -0.4072    0.5491 C   0  0  0  0  0  0  0  0  0  0  0  0
   -1.2737    0.8798    0.6841 C   0  0  0  0  0  0  0  0  0  0  0  0
   -1.0184    1.7534   -0.5291 C   0  0  0  0  0  0  0  0  0  0  0  0
    0.0898    0.9750    0.2150 C   0  0  0  0  0  0  0  0  0  0  0  0
    3.4424   -0.2318    1.0378 H   0  0  0  0  0  0  0  0  0  0  0  0
    2.5173   -1.0225   -1.1173 H   0  0  0  0  0  0  0  0  0  0  0  0
    2.6556    0.7025   -0.7295 H   0  0  0  0  0  0  0  0  0  0  0  0
    0.4999    0.0224   -1.6713 H   0  0  0  0  0  0  0  0  0  0  0  0
    0.6706   -2.3590   -0.4775 H   0  0  0  0  0  0  0  0  0  0  0  0
   -1.5178   -2.5581    0.4453 H   0  0  0  0  0  0  0  0  0  0  0  0
   -2.8078   -0.3691   -0.2258 H   0  0  0  0  0  0  0  0  0  0  0  0
   -2.5292   -0.6568    1.5000 H   0  0  0  0  0  0  0  0  0  0  0  0
   -1.5485    1.4987    1.5832 H   0  0  0  0  0  0  0  0  0  0  0  0
   -0.9672    2.8404   -0.4286 H   0  0  0  0  0  0  0  0  0  0  0  0
   -1.3339    1.3952   -1.5097 H   0  0  0  0  0  0  0  0  0  0  0  0
    0.8105    1.5902    0.8021 H   0  0  0  0  0  0  0  0  0  0  0  0
  1  2  1  0
  2  3  1  0
  3  4  1  0
  4  5  2  0
  5  6  1  0
  6  7  1  0
  7  8  1  0
  8  9  1  0
  9  3  1  0
  9  7  1  0
  1 10  1  0
  2 11  1  0
  2 12  1  0
  3 13  1  0
  4 14  1  0
  5 15  1  0
  6 16  1  0
  6 17  1  0
  7 18  1  0
  8 19  1  0
  8 20  1  0
  9 21  1  0
M  END
