
     RDKit          3D

 19 20  0  0  0  0  0  0  0  0999 V2000
    2.6028    0.4886   -0.4302 O   0  0  0  0  0  0  0  0  0  0  0  0
    1.7906   -0.3380    0.3312 C   0  0  0  0  0  0  0  0  0  0  0  0
    0.3939    0.1769    0.4971 C   0  0  0  0  0  0  0  0  0  0  0  0
   -0.4910   -0.8750    1.0418 C   0  0  0  0  0  0  0  0  0  0  0  0
   -1.3791   -1.2617    0.1427 C   0  0  0  0  0  0  0  0  0  0  0  0
   -1.1695   -0.4860   -1.1241 C   0  0  0  0  0  0  0  0  0  0  0  0
   -0.3151    0.6692   -0.6921 C   0  0  0  0  0  0  0  0  0  0  0  0
   -0.9170    1.5750    0.3534 C   0  0  0  0  0  0  0  0  0  0  0  0
    0.2458    1.3983    1.1047 O   0  0  0  0  0  0  0  0  0  0  0  0
    3.3091   -0.0929   -0.8379 H   0  0  0  0  0  0  0  0  0  0  0  0
    1.6989   -1.3647   -0.1278 H   0  0  0  0  0  0  0  0  0  0  0  0
    2.2118   -0.4572    1.3604 H   0  0  0  0  0  0  0  0  0  0  0  0
   -0.4117   -1.2670    2.0440 H   0  0  0  0  0  0  0  0  0  0  0  0
   -2.1321   -2.0278    0.3276 H   0  0  0  0  0  0  0  0  0  0  0  0
   -2.1072   -0.0844   -1.5250 H   0  0  0  0  0  0  0  0  0  0  0  0
   -0.6173   -1.0726   -1.8530 H   0  0  0  0  0  0  0  0  0  0  0  0
    0.2003    1.2308   -1.4548 H   0  0  0  0  0  0  0  0  0  0  0  0
   -1.8283    1.1657    0.8111 H   0  0  0  0  0  0  0  0  0  0  0  0
   -1.0849    2.6228    0.0308 H   0  0  0  0  0  0  0  0  0  0  0  0
  1  2  1  0
  2  3  1  0
  3  4  1  0
  4  5  2  0
  5  6  1  0
  6  7  1  0
  7  8  1  0
  8  9  1  0
  7  3  1  0
  9  3  1  0
  1 10  1  0
  2 11  1  0
  2 12  1  0
  4 13  1  0
  5 14  1  0
  6 15  1  0
  6 16  1  0
  7 17  1  0
  8 18  1  0
  8 19  1  0
M  END
