
     RDKit          3D

 19 20  0  0  0  0  0  0  0  0999 V2000
    2.6977   -1.0314   -0.9250 O   0  0  0  0  0  0  0  0  0  0  0  0
    1.5554   -0.8668   -0.1848 C   0  0  0  0  0  0  0  0  0  0  0  0
    0.4501   -0.2608   -1.0498 C   0  0  0  0  0  0  0  0  0  0  0  0
    0.8299    0.9845   -1.5516 O   0  0  0  0  0  0  0  0  0  0  0  0
    0.3268    1.5938   -0.3994 C   0  0  0  0  0  0  0  0  0  0  0  0
   -0.5453    0.4358   -0.2039 C   0  0  0  0  0  0  0  0  0  0  0  0
   -1.9695    0.3569   -0.2911 C   0  0  0  0  0  0  0  0  0  0  0  0
   -1.1775   -0.0369    0.9823 C   0  0  0  0  0  0  0  0  0  0  0  0
   -1.1514   -1.4134    1.2733 O   0  0  0  0  0  0  0  0  0  0  0  0
    3.4966   -0.6288   -0.4633 H   0  0  0  0  0  0  0  0  0  0  0  0
    1.7814   -0.1846    0.6616 H   0  0  0  0  0  0  0  0  0  0  0  0
    1.1745   -1.8133    0.2632 H   0  0  0  0  0  0  0  0  0  0  0  0
   -0.0094   -0.9548   -1.7523 H   0  0  0  0  0  0  0  0  0  0  0  0
    1.1334    1.7331    0.3528 H   0  0  0  0  0  0  0  0  0  0  0  0
   -0.1854    2.5603   -0.5764 H   0  0  0  0  0  0  0  0  0  0  0  0
   -2.5932    1.2718   -0.2063 H   0  0  0  0  0  0  0  0  0  0  0  0
   -2.4598   -0.4831   -0.8032 H   0  0  0  0  0  0  0  0  0  0  0  0
   -1.3926    0.5838    1.8695 H   0  0  0  0  0  0  0  0  0  0  0  0
   -1.9615   -1.8463    0.9131 H   0  0  0  0  0  0  0  0  0  0  0  0
  1  2  1  0
  2  3  1  0
  3  4  1  0
  4  5  1  0
  5  6  1  0
  6  7  1  0
  7  8  1  0
  8  9  1  0
  6  3  1  0
  8  6  1  0
  1 10  1  0
  2 11  1  0
  2 12  1  0
  3 13  1  0
  5 14  1  0
  5 15  1  0
  7 16  1  0
  7 17  1  0
  8 18  1  0
  9 19  1  0
M  END
