
     RDKit          3D

 21 21  0  0  0  0  0  0  0  0999 V2000
   -3.0212    1.0379    0.0320 O   0  0  0  0  0  0  0  0  0  0  0  0
   -2.1842   -0.0376   -0.2490 C   0  0  0  0  0  0  0  0  0  0  0  0
   -1.0651   -0.0304    0.7566 C   0  0  0  0  0  0  0  0  0  0  0  0
   -0.2591   -1.2859    0.7237 C   0  0  0  0  0  0  0  0  0  0  0  0
    0.9313   -1.5579    0.2430 C   0  0  0  0  0  0  0  0  0  0  0  0
    1.8840   -0.6977   -0.4360 C   0  0  0  0  0  0  0  0  0  0  0  0
    1.8486    0.7379   -0.0753 C   0  0  0  0  0  0  0  0  0  0  0  0
    0.4610    1.2798   -0.3817 C   0  0  0  0  0  0  0  0  0  0  0  0
   -0.3040    1.1090    0.7439 O   0  0  0  0  0  0  0  0  0  0  0  0
   -2.4865    1.8544    0.1870 H   0  0  0  0  0  0  0  0  0  0  0  0
   -2.7595   -0.9712   -0.0905 H   0  0  0  0  0  0  0  0  0  0  0  0
   -1.8677    0.0398   -1.2857 H   0  0  0  0  0  0  0  0  0  0  0  0
   -1.5741   -0.0381    1.7688 H   0  0  0  0  0  0  0  0  0  0  0  0
   -0.7408   -2.1437    1.1824 H   0  0  0  0  0  0  0  0  0  0  0  0
    1.2531   -2.5836    0.3731 H   0  0  0  0  0  0  0  0  0  0  0  0
    2.9301   -1.0758   -0.2393 H   0  0  0  0  0  0  0  0  0  0  0  0
    1.7499   -0.7934   -1.5492 H   0  0  0  0  0  0  0  0  0  0  0  0
    2.5474    1.2864   -0.7433 H   0  0  0  0  0  0  0  0  0  0  0  0
    2.1077    0.8549    0.9957 H   0  0  0  0  0  0  0  0  0  0  0  0
    0.4822    2.3290   -0.7179 H   0  0  0  0  0  0  0  0  0  0  0  0
    0.0670    0.6863   -1.2382 H   0  0  0  0  0  0  0  0  0  0  0  0
  1  2  1  0
  2  3  1  0
  3  4  1  0
  4  5  2  0
  5  6  1  0
  6  7  1  0
  7  8  1  0
  8  9  1  0
  9  3  1  0
  1 10  1  0
  2 11  1  0
  2 12  1  0
  3 13  1  0
  4 14  1  0
  5 15  1  0
  6 16  1  0
  6 17  1  0
  7 18  1  0
  7 19  1  0
  8 20  1  0
  8 21  1  0
M  END
