
     RDKit          3D

 16 17  0  0  0  0  0  0  0  0999 V2000
   -2.1866   -1.3854   -0.0097 O   0  0  0  0  0  0  0  0  0  0  0  0
   -1.2673   -0.7256    0.8135 C   0  0  0  0  0  0  0  0  0  0  0  0
   -0.2366   -0.0617   -0.0673 C   0  0  0  0  0  0  0  0  0  0  0  0
   -0.3867    1.3656   -0.4290 C   0  0  0  0  0  0  0  0  0  0  0  0
    0.6637    0.8885    0.5802 C   0  0  0  0  0  0  0  0  0  0  0  0
    1.9151    0.5838    0.0928 O   0  0  0  0  0  0  0  0  0  0  0  0
    1.8444   -0.5720   -0.6309 C   0  0  0  0  0  0  0  0  0  0  0  0
    0.5164   -0.8487   -0.9028 O   0  0  0  0  0  0  0  0  0  0  0  0
   -2.2383   -0.8586   -0.8512 H   0  0  0  0  0  0  0  0  0  0  0  0
   -0.7365   -1.4674    1.4399 H   0  0  0  0  0  0  0  0  0  0  0  0
   -1.7882    0.0289    1.4368 H   0  0  0  0  0  0  0  0  0  0  0  0
    0.0443    1.7681   -1.3583 H   0  0  0  0  0  0  0  0  0  0  0  0
   -1.2749    1.8772   -0.0541 H   0  0  0  0  0  0  0  0  0  0  0  0
    0.5217    1.3144    1.5756 H   0  0  0  0  0  0  0  0  0  0  0  0
    2.3674   -0.5044   -1.6130 H   0  0  0  0  0  0  0  0  0  0  0  0
    2.2422   -1.4026   -0.0225 H   0  0  0  0  0  0  0  0  0  0  0  0
  1  2  1  0
  2  3  1  0
  3  4  1  0
  4  5  1  0
  5  6  1  0
  6  7  1  0
  7  8  1  0
  5  3  1  0
  8  3  1  0
  1  9  1  0
  2 10  1  0
  2 11  1  0
  4 12  1  0
  4 13  1  0
  5 14  1  0
  7 15  1  0
  7 16  1  0
M  END
