
     RDKit          3D

 19 20  0  0  0  0  0  0  0  0999 V2000
    3.0880   -0.4054   -0.0571 O   0  0  0  0  0  0  0  0  0  0  0  0
    2.2050    0.3868    0.6943 C   0  0  0  0  0  0  0  0  0  0  0  0
    0.8107    0.2813    0.2124 C   0  0  0  0  0  0  0  0  0  0  0  0
    0.0555    1.2606   -0.2385 C   0  0  0  0  0  0  0  0  0  0  0  0
   -1.2909    0.7636   -0.6315 C   0  0  0  0  0  0  0  0  0  0  0  0
   -2.1372    0.3252    0.5388 C   0  0  0  0  0  0  0  0  0  0  0  0
   -1.3470   -0.6727   -0.2673 C   0  0  0  0  0  0  0  0  0  0  0  0
   -2.1091   -1.5806   -0.9700 O   0  0  0  0  0  0  0  0  0  0  0  0
    0.0434   -1.0138    0.1736 C   0  0  0  0  0  0  0  0  0  0  0  0
    3.3075    0.0979   -0.8805 H   0  0  0  0  0  0  0  0  0  0  0  0
    2.2369    0.0632    1.7632 H   0  0  0  0  0  0  0  0  0  0  0  0
    2.5786    1.4221    0.6074 H   0  0  0  0  0  0  0  0  0  0  0  0
    0.3540    2.2964   -0.3209 H   0  0  0  0  0  0  0  0  0  0  0  0
   -1.7630    1.1434   -1.5506 H   0  0  0  0  0  0  0  0  0  0  0  0
   -3.2133    0.3927    0.3697 H   0  0  0  0  0  0  0  0  0  0  0  0
   -1.8113    0.5805    1.5739 H   0  0  0  0  0  0  0  0  0  0  0  0
   -1.5846   -2.1699   -1.5677 H   0  0  0  0  0  0  0  0  0  0  0  0
    0.0822   -1.4875    1.1622 H   0  0  0  0  0  0  0  0  0  0  0  0
    0.4948   -1.6836   -0.6115 H   0  0  0  0  0  0  0  0  0  0  0  0
  1  2  1  0
  2  3  1  0
  3  4  2  0
  4  5  1  0
  5  6  1  0
  6  7  1  0
  7  8  1  0
  7  9  1  0
  9  3  1  0
  7  5  1  0
  1 10  1  0
  2 11  1  0
  2 12  1  0
  4 13  1  0
  5 14  1  0
  6 15  1  0
  6 16  1  0
  8 17  1  0
  9 18  1  0
  9 19  1  0
M  END
