
     RDKit          3D

 19 20  0  0  0  0  0  0  0  0999 V2000
    1.5619    1.2328   -0.7172 O   0  0  0  0  0  0  0  0  0  0  0  0
    1.7888   -0.0721   -0.2508 C   0  0  0  0  0  0  0  0  0  0  0  0
    0.5080   -0.7543    0.1141 C   0  0  0  0  0  0  0  0  0  0  0  0
   -0.2531   -0.0085    1.2222 C   0  0  0  0  0  0  0  0  0  0  0  0
   -0.4368    1.2956    0.5324 C   0  0  0  0  0  0  0  0  0  0  0  0
   -0.7257    0.9961   -0.7396 C   0  0  0  0  0  0  0  0  0  0  0  0
   -0.5928   -0.4574   -0.9182 C   0  0  0  0  0  0  0  0  0  0  0  0
   -1.7517   -1.0764   -0.1686 C   0  0  0  0  0  0  0  0  0  0  0  0
   -1.5515   -0.7194    1.0957 C   0  0  0  0  0  0  0  0  0  0  0  0
    2.4605    1.5474   -1.0395 H   0  0  0  0  0  0  0  0  0  0  0  0
    2.2121   -0.6263   -1.1150 H   0  0  0  0  0  0  0  0  0  0  0  0
    2.5447   -0.0904    0.5403 H   0  0  0  0  0  0  0  0  0  0  0  0
    0.5798   -1.8012    0.3703 H   0  0  0  0  0  0  0  0  0  0  0  0
    0.2139   -0.0023    2.1666 H   0  0  0  0  0  0  0  0  0  0  0  0
   -0.3526    2.2643    0.9728 H   0  0  0  0  0  0  0  0  0  0  0  0
   -1.0106    1.6950   -1.5166 H   0  0  0  0  0  0  0  0  0  0  0  0
   -0.4204   -0.8409   -1.8847 H   0  0  0  0  0  0  0  0  0  0  0  0
   -2.5566   -1.6730   -0.5777 H   0  0  0  0  0  0  0  0  0  0  0  0
   -2.2179   -0.9089    1.9135 H   0  0  0  0  0  0  0  0  0  0  0  0
  1  2  1  0
  2  3  1  0
  3  4  1  0
  4  5  1  0
  5  6  2  0
  6  7  1  0
  7  8  1  0
  8  9  2  0
  7  3  1  0
  9  4  1  0
  1 10  1  0
  2 11  1  0
  2 12  1  0
  3 13  1  0
  4 14  1  0
  5 15  1  0
  6 16  1  0
  7 17  1  0
  8 18  1  0
  9 19  1  0
M  END
