
     RDKit          3D

 17 18  0  0  0  0  0  0  0  0999 V2000
   -2.1783    0.9779    0.0057 O   0  0  0  0  0  0  0  0  0  0  0  0
   -1.9200   -0.3855    0.0714 C   0  0  0  0  0  0  0  0  0  0  0  0
   -0.4394   -0.6663   -0.0791 C   0  0  0  0  0  0  0  0  0  0  0  0
    0.0429   -0.1991   -1.3075 O   0  0  0  0  0  0  0  0  0  0  0  0
    1.0428    0.7110   -1.0152 C   0  0  0  0  0  0  0  0  0  0  0  0
    2.2232    0.0371   -0.3534 C   0  0  0  0  0  0  0  0  0  0  0  0
    1.7599   -0.3371    0.8355 C   0  0  0  0  0  0  0  0  0  0  0  0
    0.3695    0.1503    0.8939 C   0  0  0  0  0  0  0  0  0  0  0  0
    0.4968    1.3416    0.1330 O   0  0  0  0  0  0  0  0  0  0  0  0
   -3.1700    1.0705    0.1591 H   0  0  0  0  0  0  0  0  0  0  0  0
   -2.4830   -0.9114   -0.7084 H   0  0  0  0  0  0  0  0  0  0  0  0
   -2.2469   -0.7541    1.0462 H   0  0  0  0  0  0  0  0  0  0  0  0
   -0.2459   -1.7334    0.0612 H   0  0  0  0  0  0  0  0  0  0  0  0
    1.3086    1.3920   -1.7968 H   0  0  0  0  0  0  0  0  0  0  0  0
    3.2136   -0.1052   -0.7578 H   0  0  0  0  0  0  0  0  0  0  0  0
    2.2811   -0.8835    1.6065 H   0  0  0  0  0  0  0  0  0  0  0  0
   -0.0548    0.2952    1.8630 H   0  0  0  0  0  0  0  0  0  0  0  0
  1  2  1  0
  2  3  1  0
  3  4  1  0
  4  5  1  0
  5  6  1  0
  6  7  2  0
  7  8  1  0
  8  9  1  0
  8  3  1  0
  9  5  1  0
  1 10  1  0
  2 11  1  0
  2 12  1  0
  3 13  1  0
  5 14  1  0
  6 15  1  0
  7 16  1  0
  8 17  1  0
M  END
