
     RDKit          3D

 19 19  0  0  0  0  0  0  0  0999 V2000
    3.0251   -0.9541    0.2188 O   0  0  0  0  0  0  0  0  0  0  0  0
    2.1302   -0.1348   -0.4303 C   0  0  0  0  0  0  0  0  0  0  0  0
    0.8647    0.0474    0.4220 C   0  0  0  0  0  0  0  0  0  0  0  0
    0.0547    1.0700   -0.2373 C   0  0  0  0  0  0  0  0  0  0  0  0
   -1.1934    1.1489   -0.6566 C   0  0  0  0  0  0  0  0  0  0  0  0
   -2.2282    0.1060   -0.5626 C   0  0  0  0  0  0  0  0  0  0  0  0
   -1.6814   -1.1554   -0.4243 O   0  0  0  0  0  0  0  0  0  0  0  0
   -1.0564   -1.1878    0.8340 C   0  0  0  0  0  0  0  0  0  0  0  0
    0.2887   -1.1518    0.6364 O   0  0  0  0  0  0  0  0  0  0  0  0
    3.6185   -0.3982    0.7825 H   0  0  0  0  0  0  0  0  0  0  0  0
    2.5193    0.8860   -0.6283 H   0  0  0  0  0  0  0  0  0  0  0  0
    1.8100   -0.5621   -1.4056 H   0  0  0  0  0  0  0  0  0  0  0  0
    1.2416    0.4894    1.3882 H   0  0  0  0  0  0  0  0  0  0  0  0
    0.6150    1.9926   -0.4308 H   0  0  0  0  0  0  0  0  0  0  0  0
   -1.4827    2.0994   -1.1253 H   0  0  0  0  0  0  0  0  0  0  0  0
   -2.8826    0.2690    0.3315 H   0  0  0  0  0  0  0  0  0  0  0  0
   -2.8624    0.1053   -1.4937 H   0  0  0  0  0  0  0  0  0  0  0  0
   -1.3095   -2.2065    1.2497 H   0  0  0  0  0  0  0  0  0  0  0  0
   -1.4710   -0.4633    1.5319 H   0  0  0  0  0  0  0  0  0  0  0  0
  1  2  1  0
  2  3  1  0
  3  4  1  0
  4  5  2  0
  5  6  1  0
  6  7  1  0
  7  8  1  0
  8  9  1  0
  9  3  1  0
  1 10  1  0
  2 11  1  0
  2 12  1  0
  3 13  1  0
  4 14  1  0
  5 15  1  0
  6 16  1  0
  6 17  1  0
  8 18  1  0
  8 19  1  0
M  END
