
     RDKit          3D

 19 20  0  0  0  0  0  0  0  0999 V2000
    2.0899   -1.0387    0.6952 O   0  0  0  0  0  0  0  0  0  0  0  0
    1.6366    0.2610    0.4954 C   0  0  0  0  0  0  0  0  0  0  0  0
    0.1785    0.3247    0.1425 C   0  0  0  0  0  0  0  0  0  0  0  0
   -0.7770   -0.2299    1.1373 C   0  0  0  0  0  0  0  0  0  0  0  0
   -1.8585   -0.7560    0.4356 O   0  0  0  0  0  0  0  0  0  0  0  0
   -1.3858   -1.1697   -0.7968 C   0  0  0  0  0  0  0  0  0  0  0  0
   -0.2287   -0.2554   -1.1583 C   0  0  0  0  0  0  0  0  0  0  0  0
   -0.7410    0.9772   -1.6115 O   0  0  0  0  0  0  0  0  0  0  0  0
   -0.1915    1.6145   -0.5021 C   0  0  0  0  0  0  0  0  0  0  0  0
    1.6480   -1.3860    1.4991 H   0  0  0  0  0  0  0  0  0  0  0  0
    2.2362    0.6769   -0.3406 H   0  0  0  0  0  0  0  0  0  0  0  0
    1.8637    0.8897    1.3779 H   0  0  0  0  0  0  0  0  0  0  0  0
   -0.3435   -1.0188    1.7473 H   0  0  0  0  0  0  0  0  0  0  0  0
   -1.1672    0.5697    1.8054 H   0  0  0  0  0  0  0  0  0  0  0  0
   -2.1813   -0.9757   -1.5469 H   0  0  0  0  0  0  0  0  0  0  0  0
   -1.1231   -2.2279   -0.8506 H   0  0  0  0  0  0  0  0  0  0  0  0
    0.5369   -0.6932   -1.7980 H   0  0  0  0  0  0  0  0  0  0  0  0
   -0.8756    2.2157    0.1029 H   0  0  0  0  0  0  0  0  0  0  0  0
    0.6832    2.2220   -0.8340 H   0  0  0  0  0  0  0  0  0  0  0  0
  1  2  1  0
  2  3  1  0
  3  4  1  0
  4  5  1  0
  5  6  1  0
  6  7  1  0
  7  8  1  0
  8  9  1  0
  7  3  1  0
  9  3  1  0
  1 10  1  0
  2 11  1  0
  2 12  1  0
  4 13  1  0
  4 14  1  0
  6 15  1  0
  6 16  1  0
  7 17  1  0
  9 18  1  0
  9 19  1  0
M  END
