
     RDKit          3D

 17 17  0  0  0  0  0  0  0  0999 V2000
    2.6216    0.5967    0.2679 O   0  0  0  0  0  0  0  0  0  0  0  0
    1.7171   -0.4260    0.0067 C   0  0  0  0  0  0  0  0  0  0  0  0
    0.4574    0.0757   -0.6623 C   0  0  0  0  0  0  0  0  0  0  0  0
   -0.3033    1.0944    0.1589 C   0  0  0  0  0  0  0  0  0  0  0  0
   -1.4594    0.1339    0.3060 C   0  0  0  0  0  0  0  0  0  0  0  0
   -2.6388    0.5505   -0.2939 O   0  0  0  0  0  0  0  0  0  0  0  0
   -0.6899   -0.8700   -0.5339 C   0  0  0  0  0  0  0  0  0  0  0  0
    2.9787    0.5786    1.1897 H   0  0  0  0  0  0  0  0  0  0  0  0
    1.4709   -0.9884    0.9261 H   0  0  0  0  0  0  0  0  0  0  0  0
    2.1982   -1.1398   -0.6965 H   0  0  0  0  0  0  0  0  0  0  0  0
    0.6227    0.3717   -1.7075 H   0  0  0  0  0  0  0  0  0  0  0  0
   -0.6001    1.9801   -0.4488 H   0  0  0  0  0  0  0  0  0  0  0  0
    0.1888    1.4074    1.0932 H   0  0  0  0  0  0  0  0  0  0  0  0
   -1.6467   -0.2392    1.3281 H   0  0  0  0  0  0  0  0  0  0  0  0
   -3.2300   -0.2177   -0.4213 H   0  0  0  0  0  0  0  0  0  0  0  0
   -1.2271   -1.0920   -1.4813 H   0  0  0  0  0  0  0  0  0  0  0  0
   -0.4599   -1.8161   -0.0056 H   0  0  0  0  0  0  0  0  0  0  0  0
  1  2  1  0
  2  3  1  0
  3  4  1  0
  4  5  1  0
  5  6  1  0
  5  7  1  0
  7  3  1  0
  1  8  1  0
  2  9  1  0
  2 10  1  0
  3 11  1  0
  4 12  1  0
  4 13  1  0
  5 14  1  0
  6 15  1  0
  7 16  1  0
  7 17  1  0
M  END
