
     RDKit          3D

 19 20  0  0  0  0  0  0  0  0999 V2000
    2.1775    0.8032   -0.7369 O   0  0  0  0  0  0  0  0  0  0  0  0
    2.0055   -0.2891    0.0954 C   0  0  0  0  0  0  0  0  0  0  0  0
    0.5629   -0.6521    0.2889 C   0  0  0  0  0  0  0  0  0  0  0  0
   -0.0801   -0.9940   -1.0316 C   0  0  0  0  0  0  0  0  0  0  0  0
   -1.3265   -0.5507   -1.2094 C   0  0  0  0  0  0  0  0  0  0  0  0
   -1.7060    0.6604   -0.4146 C   0  0  0  0  0  0  0  0  0  0  0  0
   -1.6197    0.3239    1.0608 C   0  0  0  0  0  0  0  0  0  0  0  0
   -0.1655    0.5607    0.8067 C   0  0  0  0  0  0  0  0  0  0  0  0
   -0.5415    1.4093   -0.2546 O   0  0  0  0  0  0  0  0  0  0  0  0
    2.9974    1.2703   -0.4380 H   0  0  0  0  0  0  0  0  0  0  0  0
    2.4265   -0.0570    1.0923 H   0  0  0  0  0  0  0  0  0  0  0  0
    2.5815   -1.1429   -0.3639 H   0  0  0  0  0  0  0  0  0  0  0  0
    0.4819   -1.5322    0.9240 H   0  0  0  0  0  0  0  0  0  0  0  0
    0.4610   -1.5674   -1.7751 H   0  0  0  0  0  0  0  0  0  0  0  0
   -2.0373   -1.0208   -1.8809 H   0  0  0  0  0  0  0  0  0  0  0  0
   -2.5940    1.1915   -0.7428 H   0  0  0  0  0  0  0  0  0  0  0  0
   -1.9344   -0.6870    1.3285 H   0  0  0  0  0  0  0  0  0  0  0  0
   -2.0520    1.1483    1.6483 H   0  0  0  0  0  0  0  0  0  0  0  0
    0.3628    1.1256    1.6030 H   0  0  0  0  0  0  0  0  0  0  0  0
  1  2  1  0
  2  3  1  0
  3  4  1  0
  4  5  2  0
  5  6  1  0
  6  7  1  0
  7  8  1  0
  8  9  1  0
  8  3  1  0
  9  6  1  0
  1 10  1  0
  2 11  1  0
  2 12  1  0
  3 13  1  0
  4 14  1  0
  5 15  1  0
  6 16  1  0
  7 17  1  0
  7 18  1  0
  8 19  1  0
M  END
