
     RDKit          3D

 19 20  0  0  0  0  0  0  0  0999 V2000
    2.5439    1.0445    0.4601 O   0  0  0  0  0  0  0  0  0  0  0  0
    1.6694    0.3832   -0.3660 C   0  0  0  0  0  0  0  0  0  0  0  0
    0.7053   -0.4911    0.3512 C   0  0  0  0  0  0  0  0  0  0  0  0
   -0.2522   -1.2091   -0.6200 C   0  0  0  0  0  0  0  0  0  0  0  0
   -1.5387   -0.8912    0.1592 C   0  0  0  0  0  0  0  0  0  0  0  0
   -1.1652   -0.9026    1.5010 O   0  0  0  0  0  0  0  0  0  0  0  0
   -0.3391    0.2021    1.1582 C   0  0  0  0  0  0  0  0  0  0  0  0
   -1.4640    0.6015    0.2506 C   0  0  0  0  0  0  0  0  0  0  0  0
   -1.1379    1.1925   -0.9467 O   0  0  0  0  0  0  0  0  0  0  0  0
    3.4192    1.2486    0.0321 H   0  0  0  0  0  0  0  0  0  0  0  0
    1.1733    1.1441   -0.9989 H   0  0  0  0  0  0  0  0  0  0  0  0
    2.3039   -0.2833   -1.0232 H   0  0  0  0  0  0  0  0  0  0  0  0
    1.1843   -1.2931    0.9458 H   0  0  0  0  0  0  0  0  0  0  0  0
   -0.0554   -2.2791   -0.6700 H   0  0  0  0  0  0  0  0  0  0  0  0
   -0.3342   -0.6843   -1.5696 H   0  0  0  0  0  0  0  0  0  0  0  0
   -2.4331   -1.3741   -0.1458 H   0  0  0  0  0  0  0  0  0  0  0  0
   -0.0590    0.8484    1.9613 H   0  0  0  0  0  0  0  0  0  0  0  0
   -2.2713    1.0980    0.8203 H   0  0  0  0  0  0  0  0  0  0  0  0
   -1.9493    1.6451   -1.2995 H   0  0  0  0  0  0  0  0  0  0  0  0
  1  2  1  0
  2  3  1  0
  3  4  1  0
  4  5  1  0
  5  6  1  0
  6  7  1  0
  7  8  1  0
  8  9  1  0
  7  3  1  0
  8  5  1  0
  1 10  1  0
  2 11  1  0
  2 12  1  0
  3 13  1  0
  4 14  1  0
  4 15  1  0
  5 16  1  0
  7 17  1  0
  8 18  1  0
  9 19  1  0
M  END
