
     RDKit          3D

 21 22  0  0  0  0  0  0  0  0999 V2000
    2.7912    0.8466   -0.5864 O   0  0  0  0  0  0  0  0  0  0  0  0
    2.0730   -0.1745   -0.0213 C   0  0  0  0  0  0  0  0  0  0  0  0
    0.6279    0.1090    0.1902 C   0  0  0  0  0  0  0  0  0  0  0  0
   -0.1651   -1.0100    0.8107 C   0  0  0  0  0  0  0  0  0  0  0  0
   -1.3613   -1.2315   -0.1057 C   0  0  0  0  0  0  0  0  0  0  0  0
   -1.6318    0.1587   -0.6249 C   0  0  0  0  0  0  0  0  0  0  0  0
   -2.3527    0.8297    0.3708 O   0  0  0  0  0  0  0  0  0  0  0  0
   -0.2379    0.7632   -0.7849 C   0  0  0  0  0  0  0  0  0  0  0  0
    0.2209    1.5132    0.4449 C   0  0  0  0  0  0  0  0  0  0  0  0
    3.2675    0.5564   -1.4182 H   0  0  0  0  0  0  0  0  0  0  0  0
    2.5253   -0.3724    0.9919 H   0  0  0  0  0  0  0  0  0  0  0  0
    2.2561   -1.1047   -0.6303 H   0  0  0  0  0  0  0  0  0  0  0  0
   -0.4883   -0.7536    1.8350 H   0  0  0  0  0  0  0  0  0  0  0  0
    0.4109   -1.9593    0.7922 H   0  0  0  0  0  0  0  0  0  0  0  0
   -1.1521   -1.9557   -0.8986 H   0  0  0  0  0  0  0  0  0  0  0  0
   -2.2191   -1.6260    0.4787 H   0  0  0  0  0  0  0  0  0  0  0  0
   -2.2127    0.1924   -1.5431 H   0  0  0  0  0  0  0  0  0  0  0  0
   -2.9268    0.1483    0.8398 H   0  0  0  0  0  0  0  0  0  0  0  0
    0.0806    1.0912   -1.7775 H   0  0  0  0  0  0  0  0  0  0  0  0
    1.0101    2.2650    0.3735 H   0  0  0  0  0  0  0  0  0  0  0  0
   -0.5156    1.7137    1.2631 H   0  0  0  0  0  0  0  0  0  0  0  0
  1  2  1  0
  2  3  1  0
  3  4  1  0
  4  5  1  0
  5  6  1  0
  6  7  1  0
  6  8  1  0
  8  9  1  0
  8  3  1  0
  9  3  1  0
  1 10  1  0
  2 11  1  0
  2 12  1  0
  4 13  1  0
  4 14  1  0
  5 15  1  0
  5 16  1  0
  6 17  1  0
  7 18  1  0
  8 19  1  0
  9 20  1  0
  9 21  1  0
M  END
