
     RDKit          3D

 15 15  0  0  0  0  0  0  0  0999 V2000
   -2.3077    0.3382   -1.0305 O   0  0  0  0  0  0  0  0  0  0  0  0
   -1.7059    0.1005    0.1789 C   0  0  0  0  0  0  0  0  0  0  0  0
   -0.2302    0.0359    0.0902 C   0  0  0  0  0  0  0  0  0  0  0  0
    0.5447    0.1730   -0.9643 C   0  0  0  0  0  0  0  0  0  0  0  0
    1.9774    0.0198   -0.5169 C   0  0  0  0  0  0  0  0  0  0  0  0
    1.8423   -0.7279    0.6453 O   0  0  0  0  0  0  0  0  0  0  0  0
    0.6862   -0.2079    1.2363 C   0  0  0  0  0  0  0  0  0  0  0  0
   -2.9952   -0.3425   -1.2195 H   0  0  0  0  0  0  0  0  0  0  0  0
   -2.1025   -0.8488    0.6310 H   0  0  0  0  0  0  0  0  0  0  0  0
   -1.9584    0.9548    0.8628 H   0  0  0  0  0  0  0  0  0  0  0  0
    0.1859    0.3636   -1.9736 H   0  0  0  0  0  0  0  0  0  0  0  0
    2.3737    1.0187   -0.3741 H   0  0  0  0  0  0  0  0  0  0  0  0
    2.4700   -0.5974   -1.2734 H   0  0  0  0  0  0  0  0  0  0  0  0
    0.9517    0.7750    1.6946 H   0  0  0  0  0  0  0  0  0  0  0  0
    0.2679   -0.8458    2.0131 H   0  0  0  0  0  0  0  0  0  0  0  0
  1  2  1  0
  2  3  1  0
  3  4  2  0
  4  5  1  0
  5  6  1  0
  6  7  1  0
  7  3  1  0
  1  8  1  0
  2  9  1  0
  2 10  1  0
  4 11  1  0
  5 12  1  0
  5 13  1  0
  7 14  1  0
  7 15  1  0
M  END
