
     RDKit          3D

 19 20  0  0  0  0  0  0  0  0999 V2000
    2.5996   -0.3295    1.3341 O   0  0  0  0  0  0  0  0  0  0  0  0
    1.9660    0.4045    0.3061 C   0  0  0  0  0  0  0  0  0  0  0  0
    0.5544   -0.0659    0.2376 C   0  0  0  0  0  0  0  0  0  0  0  0
    0.2938   -1.2056   -0.6937 C   0  0  0  0  0  0  0  0  0  0  0  0
   -0.3088    0.1215   -0.9377 C   0  0  0  0  0  0  0  0  0  0  0  0
   -1.6841    0.3533   -0.2960 C   0  0  0  0  0  0  0  0  0  0  0  0
   -2.2468   -0.8669    0.0026 O   0  0  0  0  0  0  0  0  0  0  0  0
   -1.2436    0.9707    1.0385 C   0  0  0  0  0  0  0  0  0  0  0  0
   -0.1970    0.0969    1.3862 O   0  0  0  0  0  0  0  0  0  0  0  0
    3.1867   -1.0421    0.9469 H   0  0  0  0  0  0  0  0  0  0  0  0
    2.0373    1.4969    0.5703 H   0  0  0  0  0  0  0  0  0  0  0  0
    2.5350    0.2112   -0.6212 H   0  0  0  0  0  0  0  0  0  0  0  0
   -0.3809   -2.0297   -0.3755 H   0  0  0  0  0  0  0  0  0  0  0  0
    1.0998   -1.5079   -1.3745 H   0  0  0  0  0  0  0  0  0  0  0  0
   -0.0378    0.7054   -1.8181 H   0  0  0  0  0  0  0  0  0  0  0  0
   -2.3084    1.0239   -0.8805 H   0  0  0  0  0  0  0  0  0  0  0  0
   -2.9115   -1.1918   -0.6271 H   0  0  0  0  0  0  0  0  0  0  0  0
   -0.9026    1.9997    0.8983 H   0  0  0  0  0  0  0  0  0  0  0  0
   -2.0509    0.8555    1.7930 H   0  0  0  0  0  0  0  0  0  0  0  0
  1  2  1  0
  2  3  1  0
  3  4  1  0
  4  5  1  0
  5  6  1  0
  6  7  1  0
  6  8  1  0
  8  9  1  0
  5  3  1  0
  9  3  1  0
  1 10  1  0
  2 11  1  0
  2 12  1  0
  4 13  1  0
  4 14  1  0
  5 15  1  0
  6 16  1  0
  7 17  1  0
  8 18  1  0
  8 19  1  0
M  END
