
     RDKit          3D

 21 22  0  0  0  0  0  0  0  0999 V2000
    2.3786   -0.1429    1.2959 O   0  0  0  0  0  0  0  0  0  0  0  0
    1.6702    0.7009    0.4392 C   0  0  0  0  0  0  0  0  0  0  0  0
    0.8142   -0.1383   -0.4534 C   0  0  0  0  0  0  0  0  0  0  0  0
   -0.1847   -0.9860    0.3239 C   0  0  0  0  0  0  0  0  0  0  0  0
   -0.9236    0.0788    1.0970 C   0  0  0  0  0  0  0  0  0  0  0  0
   -1.1094    1.1378    0.0195 C   0  0  0  0  0  0  0  0  0  0  0  0
   -0.2760    0.6923   -1.1526 C   0  0  0  0  0  0  0  0  0  0  0  0
   -0.9791   -0.3476   -1.7772 O   0  0  0  0  0  0  0  0  0  0  0  0
   -1.0944   -1.3679   -0.8335 C   0  0  0  0  0  0  0  0  0  0  0  0
    2.5499   -0.9727    0.7772 H   0  0  0  0  0  0  0  0  0  0  0  0
    1.1342    1.5029    0.9409 H   0  0  0  0  0  0  0  0  0  0  0  0
    2.4579    1.2005   -0.1902 H   0  0  0  0  0  0  0  0  0  0  0  0
    1.3567   -0.7359   -1.1784 H   0  0  0  0  0  0  0  0  0  0  0  0
    0.2261   -1.7912    0.8810 H   0  0  0  0  0  0  0  0  0  0  0  0
   -1.9088   -0.3388    1.3976 H   0  0  0  0  0  0  0  0  0  0  0  0
   -0.3642    0.5239    1.9124 H   0  0  0  0  0  0  0  0  0  0  0  0
   -2.1654    1.1598   -0.3224 H   0  0  0  0  0  0  0  0  0  0  0  0
   -0.8540    2.1434    0.3835 H   0  0  0  0  0  0  0  0  0  0  0  0
    0.0958    1.4460   -1.8019 H   0  0  0  0  0  0  0  0  0  0  0  0
   -2.1297   -1.4773   -0.4575 H   0  0  0  0  0  0  0  0  0  0  0  0
   -0.6945   -2.2876   -1.3010 H   0  0  0  0  0  0  0  0  0  0  0  0
  1  2  1  0
  2  3  1  0
  3  4  1  0
  4  5  1  0
  5  6  1  0
  6  7  1  0
  7  8  1  0
  8  9  1  0
  7  3  1  0
  9  4  1  0
  1 10  1  0
  2 11  1  0
  2 12  1  0
  3 13  1  0
  4 14  1  0
  5 15  1  0
  5 16  1  0
  6 17  1  0
  6 18  1  0
  7 19  1  0
  9 20  1  0
  9 21  1  0
M  END
