
     RDKit          3D

 19 20  0  0  0  0  0  0  0  0999 V2000
    3.1824    0.4777    0.7827 O   0  0  0  0  0  0  0  0  0  0  0  0
    2.3344    0.4911   -0.3397 C   0  0  0  0  0  0  0  0  0  0  0  0
    0.9144    0.4474    0.2251 C   0  0  0  0  0  0  0  0  0  0  0  0
    0.8100   -0.7129    0.9519 O   0  0  0  0  0  0  0  0  0  0  0  0
   -0.2921   -1.4209    0.4690 C   0  0  0  0  0  0  0  0  0  0  0  0
   -1.0360   -0.3402   -0.2231 C   0  0  0  0  0  0  0  0  0  0  0  0
   -1.9576    0.4854    0.6942 C   0  0  0  0  0  0  0  0  0  0  0  0
   -2.4368   -0.2758   -0.4965 C   0  0  0  0  0  0  0  0  0  0  0  0
   -0.0381    0.4070   -0.7894 O   0  0  0  0  0  0  0  0  0  0  0  0
    3.5179    1.3918    0.9221 H   0  0  0  0  0  0  0  0  0  0  0  0
    2.4963    1.3463   -0.9890 H   0  0  0  0  0  0  0  0  0  0  0  0
    2.4818   -0.4993   -0.8528 H   0  0  0  0  0  0  0  0  0  0  0  0
    0.6980    1.3640    0.8163 H   0  0  0  0  0  0  0  0  0  0  0  0
    0.1150   -2.1578   -0.2626 H   0  0  0  0  0  0  0  0  0  0  0  0
   -0.8731   -1.8929    1.2799 H   0  0  0  0  0  0  0  0  0  0  0  0
   -2.1197    0.1172    1.7194 H   0  0  0  0  0  0  0  0  0  0  0  0
   -1.9280    1.5744    0.6086 H   0  0  0  0  0  0  0  0  0  0  0  0
   -3.0831   -1.1279   -0.2807 H   0  0  0  0  0  0  0  0  0  0  0  0
   -2.7856    0.3255   -1.3718 H   0  0  0  0  0  0  0  0  0  0  0  0
  1  2  1  0
  2  3  1  0
  3  4  1  0
  4  5  1  0
  5  6  1  0
  6  7  1  0
  7  8  1  0
  6  9  1  0
  9  3  1  0
  8  6  1  0
  1 10  1  0
  2 11  1  0
  2 12  1  0
  3 13  1  0
  5 14  1  0
  5 15  1  0
  7 16  1  0
  7 17  1  0
  8 18  1  0
  8 19  1  0
M  END
