
     RDKit          3D

 19 20  0  0  0  0  0  0  0  0999 V2000
    3.2773    0.7484    0.4583 O   0  0  0  0  0  0  0  0  0  0  0  0
    2.4104   -0.1379   -0.1482 C   0  0  0  0  0  0  0  0  0  0  0  0
    1.1267   -0.3131    0.6090 C   0  0  0  0  0  0  0  0  0  0  0  0
    0.3543    0.8024    0.8021 O   0  0  0  0  0  0  0  0  0  0  0  0
   -0.8186    0.2334    0.3232 C   0  0  0  0  0  0  0  0  0  0  0  0
   -1.7619    1.0378   -0.4991 C   0  0  0  0  0  0  0  0  0  0  0  0
   -2.8403    0.2228   -0.8380 O   0  0  0  0  0  0  0  0  0  0  0  0
   -1.1988   -1.1611    0.6399 C   0  0  0  0  0  0  0  0  0  0  0  0
   -0.0211   -0.8761   -0.1958 C   0  0  0  0  0  0  0  0  0  0  0  0
    3.2672    1.6253    0.0346 H   0  0  0  0  0  0  0  0  0  0  0  0
    2.1941    0.1347   -1.2219 H   0  0  0  0  0  0  0  0  0  0  0  0
    2.9273   -1.1185   -0.2023 H   0  0  0  0  0  0  0  0  0  0  0  0
    1.2899   -0.8338    1.5779 H   0  0  0  0  0  0  0  0  0  0  0  0
   -1.2980    1.4256   -1.4451 H   0  0  0  0  0  0  0  0  0  0  0  0
   -2.2004    1.9004    0.0611 H   0  0  0  0  0  0  0  0  0  0  0  0
   -3.6941    0.5187   -0.4839 H   0  0  0  0  0  0  0  0  0  0  0  0
   -2.0747   -1.5697    0.1482 H   0  0  0  0  0  0  0  0  0  0  0  0
   -1.0236   -1.5031    1.7009 H   0  0  0  0  0  0  0  0  0  0  0  0
    0.0844   -1.1361   -1.2384 H   0  0  0  0  0  0  0  0  0  0  0  0
  1  2  1  0
  2  3  1  0
  3  4  1  0
  4  5  1  0
  5  6  1  0
  6  7  1  0
  5  8  1  0
  8  9  1  0
  9  3  1  0
  9  5  1  0
  1 10  1  0
  2 11  1  0
  2 12  1  0
  3 13  1  0
  6 14  1  0
  6 15  1  0
  7 16  1  0
  8 17  1  0
  8 18  1  0
  9 19  1  0
M  END
