
     RDKit          3D

 17 18  0  0  0  0  0  0  0  0999 V2000
    2.7555    0.5597   -0.3176 O   0  0  0  0  0  0  0  0  0  0  0  0
    1.7778   -0.4245   -0.4253 C   0  0  0  0  0  0  0  0  0  0  0  0
    0.5239    0.0712    0.3133 C   0  0  0  0  0  0  0  0  0  0  0  0
    0.8407    0.3023    1.6765 O   0  0  0  0  0  0  0  0  0  0  0  0
   -0.3274    0.9575   -0.3917 C   0  0  0  0  0  0  0  0  0  0  0  0
   -1.3161    0.6738   -1.3412 O   0  0  0  0  0  0  0  0  0  0  0  0
   -2.0574    0.3597   -0.1696 C   0  0  0  0  0  0  0  0  0  0  0  0
   -0.7923   -0.4764    0.0923 C   0  0  0  0  0  0  0  0  0  0  0  0
   -0.7464   -1.4750   -0.9154 O   0  0  0  0  0  0  0  0  0  0  0  0
    2.5427    1.1295    0.4558 H   0  0  0  0  0  0  0  0  0  0  0  0
    1.5633   -0.6190   -1.4880 H   0  0  0  0  0  0  0  0  0  0  0  0
    2.1396   -1.3019    0.1329 H   0  0  0  0  0  0  0  0  0  0  0  0
    0.6124   -0.5528    2.1280 H   0  0  0  0  0  0  0  0  0  0  0  0
   -0.7340    1.8088    0.2412 H   0  0  0  0  0  0  0  0  0  0  0  0
   -2.9246   -0.2884   -0.3454 H   0  0  0  0  0  0  0  0  0  0  0  0
   -2.2484    1.1681    0.5162 H   0  0  0  0  0  0  0  0  0  0  0  0
   -1.6093   -1.8926   -1.0614 H   0  0  0  0  0  0  0  0  0  0  0  0
  1  2  1  0
  2  3  1  0
  3  4  1  0
  3  5  1  0
  5  6  1  0
  6  7  1  0
  7  8  1  0
  8  9  1  0
  8  3  1  0
  8  5  1  0
  1 10  1  0
  2 11  1  0
  2 12  1  0
  4 13  1  0
  5 14  1  0
  7 15  1  0
  7 16  1  0
  9 17  1  0
M  END
