
     RDKit          3D

 19 20  0  0  0  0  0  0  0  0999 V2000
    2.1540    0.3774   -1.3411 O   0  0  0  0  0  0  0  0  0  0  0  0
    2.0321   -0.1606   -0.0723 C   0  0  0  0  0  0  0  0  0  0  0  0
    0.6121   -0.1803    0.4202 C   0  0  0  0  0  0  0  0  0  0  0  0
    0.4792   -0.7239    1.7053 O   0  0  0  0  0  0  0  0  0  0  0  0
   -0.1573   -1.3374    0.6246 C   0  0  0  0  0  0  0  0  0  0  0  0
   -1.6271   -1.0122    0.5338 C   0  0  0  0  0  0  0  0  0  0  0  0
   -1.6945    0.3512   -0.1080 C   0  0  0  0  0  0  0  0  0  0  0  0
   -0.3036    0.9166   -0.0168 C   0  0  0  0  0  0  0  0  0  0  0  0
    0.1603    1.3853   -1.2527 O   0  0  0  0  0  0  0  0  0  0  0  0
    2.5884    1.2761   -1.3413 H   0  0  0  0  0  0  0  0  0  0  0  0
    2.6477    0.4672    0.6124 H   0  0  0  0  0  0  0  0  0  0  0  0
    2.5067   -1.1781   -0.0549 H   0  0  0  0  0  0  0  0  0  0  0  0
    0.2048   -2.3344    0.2898 H   0  0  0  0  0  0  0  0  0  0  0  0
   -2.2055   -1.7801    0.0056 H   0  0  0  0  0  0  0  0  0  0  0  0
   -2.0201   -0.9929    1.5840 H   0  0  0  0  0  0  0  0  0  0  0  0
   -2.4407    0.9434    0.4650 H   0  0  0  0  0  0  0  0  0  0  0  0
   -2.0763    0.2980   -1.1452 H   0  0  0  0  0  0  0  0  0  0  0  0
   -0.3093    1.7380    0.7513 H   0  0  0  0  0  0  0  0  0  0  0  0
   -0.5509    1.9468   -1.6597 H   0  0  0  0  0  0  0  0  0  0  0  0
  1  2  1  0
  2  3  1  0
  3  4  1  0
  4  5  1  0
  5  6  1  0
  6  7  1  0
  7  8  1  0
  8  9  1  0
  5  3  1  0
  8  3  1  0
  1 10  1  0
  2 11  1  0
  2 12  1  0
  5 13  1  0
  6 14  1  0
  6 15  1  0
  7 16  1  0
  7 17  1  0
  8 18  1  0
  9 19  1  0
M  END
