
     RDKit          3D

 17 19  0  0  0  0  0  0  0  0999 V2000
    2.3248    0.1390   -1.2404 O   0  0  0  0  0  0  0  0  0  0  0  0
    1.4500    0.8355   -0.3969 C   0  0  0  0  0  0  0  0  0  0  0  0
    0.5200    0.0045    0.1942 C   0  0  0  0  0  0  0  0  0  0  0  0
    0.7747   -1.0710    1.0211 O   0  0  0  0  0  0  0  0  0  0  0  0
   -0.6071   -1.0842    1.0088 C   0  0  0  0  0  0  0  0  0  0  0  0
   -0.5354   -0.8004   -0.4471 C   0  0  0  0  0  0  0  0  0  0  0  0
   -1.6510    0.1587   -0.6779 C   0  0  0  0  0  0  0  0  0  0  0  0
   -1.5616    0.9763    0.4764 O   0  0  0  0  0  0  0  0  0  0  0  0
   -0.5374    0.4092    1.1804 C   0  0  0  0  0  0  0  0  0  0  0  0
    2.8019   -0.5097   -0.6425 H   0  0  0  0  0  0  0  0  0  0  0  0
    0.9701    1.6220   -1.0427 H   0  0  0  0  0  0  0  0  0  0  0  0
    2.0757    1.4059    0.3194 H   0  0  0  0  0  0  0  0  0  0  0  0
   -1.2228   -1.7142    1.4984 H   0  0  0  0  0  0  0  0  0  0  0  0
   -0.3167   -1.5679   -1.1495 H   0  0  0  0  0  0  0  0  0  0  0  0
   -2.6439   -0.3429   -0.6342 H   0  0  0  0  0  0  0  0  0  0  0  0
   -1.6017    0.7323   -1.5975 H   0  0  0  0  0  0  0  0  0  0  0  0
   -0.2398    0.8069    2.1300 H   0  0  0  0  0  0  0  0  0  0  0  0
  1  2  1  0
  2  3  1  0
  3  4  1  0
  4  5  1  0
  5  6  1  0
  6  7  1  0
  7  8  1  0
  8  9  1  0
  6  3  1  0
  9  3  1  0
  9  5  1  0
  1 10  1  0
  2 11  1  0
  2 12  1  0
  5 13  1  0
  6 14  1  0
  7 15  1  0
  7 16  1  0
  9 17  1  0
M  END
