
     RDKit          3D

 18 19  0  0  0  0  0  0  0  0999 V2000
   -1.8304    0.7124   -1.3745 O   0  0  0  0  0  0  0  0  0  0  0  0
   -1.7575    0.1889   -0.0831 C   0  0  0  0  0  0  0  0  0  0  0  0
   -0.3056    0.0897    0.2885 C   0  0  0  0  0  0  0  0  0  0  0  0
    0.1552   -0.4205    1.5817 C   0  0  0  0  0  0  0  0  0  0  0  0
    0.3983   -1.2048    0.3590 C   0  0  0  0  0  0  0  0  0  0  0  0
    1.4009   -0.7123   -0.6420 C   0  0  0  0  0  0  0  0  0  0  0  0
    0.7497    0.6538   -0.6303 C   0  0  0  0  0  0  0  0  0  0  0  0
    1.4937    1.6249    0.0732 O   0  0  0  0  0  0  0  0  0  0  0  0
   -2.6205    1.3192   -1.4488 H   0  0  0  0  0  0  0  0  0  0  0  0
   -2.2757   -0.7964   -0.0566 H   0  0  0  0  0  0  0  0  0  0  0  0
   -2.2389    0.9378    0.5806 H   0  0  0  0  0  0  0  0  0  0  0  0
    0.9901    0.1684    2.0609 H   0  0  0  0  0  0  0  0  0  0  0  0
   -0.5935   -0.8049    2.2834 H   0  0  0  0  0  0  0  0  0  0  0  0
   -0.1171   -2.1694    0.2137 H   0  0  0  0  0  0  0  0  0  0  0  0
    1.3173   -1.2508   -1.6036 H   0  0  0  0  0  0  0  0  0  0  0  0
    2.4464   -0.6809   -0.2224 H   0  0  0  0  0  0  0  0  0  0  0  0
    0.3745    0.9942   -1.6149 H   0  0  0  0  0  0  0  0  0  0  0  0
    2.4131    1.3508    0.2351 H   0  0  0  0  0  0  0  0  0  0  0  0
  1  2  1  0
  2  3  1  0
  3  4  1  0
  4  5  1  0
  5  6  1  0
  6  7  1  0
  7  8  1  0
  5  3  1  0
  7  3  1  0
  1  9  1  0
  2 10  1  0
  2 11  1  0
  4 12  1  0
  4 13  1  0
  5 14  1  0
  6 15  1  0
  6 16  1  0
  7 17  1  0
  8 18  1  0
M  END
