
     RDKit          3D

 21 23  0  0  0  0  0  0  0  0999 V2000
    2.2389   -1.1949    0.8203 O   0  0  0  0  0  0  0  0  0  0  0  0
    1.9145    0.1310    0.4471 C   0  0  0  0  0  0  0  0  0  0  0  0
    0.4864    0.1033   -0.0161 C   0  0  0  0  0  0  0  0  0  0  0  0
   -0.1112    1.3891   -0.4713 C   0  0  0  0  0  0  0  0  0  0  0  0
   -1.5693    1.3889   -0.0456 C   0  0  0  0  0  0  0  0  0  0  0  0
   -1.8092   -0.0410    0.4124 C   0  0  0  0  0  0  0  0  0  0  0  0
   -1.1704   -1.1495   -0.3306 C   0  0  0  0  0  0  0  0  0  0  0  0
    0.1683   -1.0139   -0.9859 C   0  0  0  0  0  0  0  0  0  0  0  0
   -0.5215   -0.4667    0.9198 C   0  0  0  0  0  0  0  0  0  0  0  0
    3.0203   -1.5031    0.3058 H   0  0  0  0  0  0  0  0  0  0  0  0
    2.5578    0.4278   -0.3915 H   0  0  0  0  0  0  0  0  0  0  0  0
    2.0926    0.7968    1.2897 H   0  0  0  0  0  0  0  0  0  0  0  0
    0.3981    2.2654   -0.0301 H   0  0  0  0  0  0  0  0  0  0  0  0
   -0.1311    1.4476   -1.5955 H   0  0  0  0  0  0  0  0  0  0  0  0
   -2.2589    1.6224   -0.8584 H   0  0  0  0  0  0  0  0  0  0  0  0
   -1.7243    2.0280    0.8428 H   0  0  0  0  0  0  0  0  0  0  0  0
   -2.7280   -0.2711    0.9421 H   0  0  0  0  0  0  0  0  0  0  0  0
   -1.5553   -2.1559   -0.2010 H   0  0  0  0  0  0  0  0  0  0  0  0
    0.8183   -1.8962   -0.7108 H   0  0  0  0  0  0  0  0  0  0  0  0
    0.1889   -0.7460   -2.0475 H   0  0  0  0  0  0  0  0  0  0  0  0
   -0.3047   -1.1620    1.7042 H   0  0  0  0  0  0  0  0  0  0  0  0
  1  2  1  0
  2  3  1  0
  3  4  1  0
  4  5  1  0
  5  6  1  0
  6  7  1  0
  7  8  1  0
  7  9  1  0
  8  3  1  0
  9  3  1  0
  9  6  1  0
  1 10  1  0
  2 11  1  0
  2 12  1  0
  4 13  1  0
  4 14  1  0
  5 15  1  0
  5 16  1  0
  6 17  1  0
  7 18  1  0
  8 19  1  0
  8 20  1  0
  9 21  1  0
M  END
