
     RDKit          3D

 18 19  0  0  0  0  0  0  0  0999 V2000
    1.7737    0.9317    1.0750 O   0  0  0  0  0  0  0  0  0  0  0  0
    1.8097   -0.0863    0.0988 C   0  0  0  0  0  0  0  0  0  0  0  0
    0.4038   -0.3116   -0.3507 C   0  0  0  0  0  0  0  0  0  0  0  0
   -0.2946    0.8622   -0.9561 C   0  0  0  0  0  0  0  0  0  0  0  0
   -1.4858    1.0924   -0.1031 C   0  0  0  0  0  0  0  0  0  0  0  0
   -1.5815    0.1535    0.8276 C   0  0  0  0  0  0  0  0  0  0  0  0
   -0.5112   -0.8354    0.7653 C   0  0  0  0  0  0  0  0  0  0  0  0
   -0.2212   -1.6212   -0.4647 C   0  0  0  0  0  0  0  0  0  0  0  0
    1.1125    1.6228    0.7900 H   0  0  0  0  0  0  0  0  0  0  0  0
    2.2177   -0.9911    0.6305 H   0  0  0  0  0  0  0  0  0  0  0  0
    2.4825    0.2714   -0.6869 H   0  0  0  0  0  0  0  0  0  0  0  0
   -0.6784    0.5643   -1.9628 H   0  0  0  0  0  0  0  0  0  0  0  0
    0.3271    1.7477   -1.0951 H   0  0  0  0  0  0  0  0  0  0  0  0
   -2.1669    1.9371   -0.2576 H   0  0  0  0  0  0  0  0  0  0  0  0
   -2.3835    0.1373    1.5560 H   0  0  0  0  0  0  0  0  0  0  0  0
   -0.0337   -1.2276    1.6872 H   0  0  0  0  0  0  0  0  0  0  0  0
    0.3299   -2.5530   -0.3852 H   0  0  0  0  0  0  0  0  0  0  0  0
   -1.1002   -1.6942   -1.1683 H   0  0  0  0  0  0  0  0  0  0  0  0
  1  2  1  0
  2  3  1  0
  3  4  1  0
  4  5  1  0
  5  6  2  0
  6  7  1  0
  7  8  1  0
  7  3  1  0
  8  3  1  0
  1  9  1  0
  2 10  1  0
  2 11  1  0
  4 12  1  0
  4 13  1  0
  5 14  1  0
  6 15  1  0
  7 16  1  0
  8 17  1  0
  8 18  1  0
M  END
