
     RDKit          3D

 21 22  0  0  0  0  0  0  0  0999 V2000
    1.2761    1.1929    1.3129 O   0  0  0  0  0  0  0  0  0  0  0  0
    1.6542   -0.0925    0.9567 C   0  0  0  0  0  0  0  0  0  0  0  0
    0.6951   -0.7870    0.0754 C   0  0  0  0  0  0  0  0  0  0  0  0
   -0.7073   -1.0235    0.5454 C   0  0  0  0  0  0  0  0  0  0  0  0
   -1.2992    0.3190    0.8295 C   0  0  0  0  0  0  0  0  0  0  0  0
   -0.7937    1.0839   -0.4023 C   0  0  0  0  0  0  0  0  0  0  0  0
    0.0295    0.0068   -1.0263 C   0  0  0  0  0  0  0  0  0  0  0  0
    0.6635    0.1960   -2.1788 O   0  0  0  0  0  0  0  0  0  0  0  0
   -0.9965   -1.1501   -0.9661 C   0  0  0  0  0  0  0  0  0  0  0  0
    1.8407    1.8990    0.9212 H   0  0  0  0  0  0  0  0  0  0  0  0
    1.9718   -0.6953    1.8388 H   0  0  0  0  0  0  0  0  0  0  0  0
    2.6058    0.0307    0.3579 H   0  0  0  0  0  0  0  0  0  0  0  0
    1.1121   -1.7218   -0.4223 H   0  0  0  0  0  0  0  0  0  0  0  0
   -0.9399   -1.8601    1.1492 H   0  0  0  0  0  0  0  0  0  0  0  0
   -0.9630    0.8066    1.7414 H   0  0  0  0  0  0  0  0  0  0  0  0
   -2.4131    0.2918    0.8548 H   0  0  0  0  0  0  0  0  0  0  0  0
   -1.6914    1.2204   -1.0557 H   0  0  0  0  0  0  0  0  0  0  0  0
   -0.2996    2.0149   -0.1581 H   0  0  0  0  0  0  0  0  0  0  0  0
    0.7974    1.1467   -2.3684 H   0  0  0  0  0  0  0  0  0  0  0  0
   -1.9972   -0.8492   -1.2528 H   0  0  0  0  0  0  0  0  0  0  0  0
   -0.5454   -2.0291   -1.4321 H   0  0  0  0  0  0  0  0  0  0  0  0
  1  2  1  0
  2  3  1  0
  3  4  1  0
  4  5  1  0
  5  6  1  0
  6  7  1  0
  7  8  1  0
  7  9  1  0
  7  3  1  0
  9  4  1  0
  1 10  1  0
  2 11  1  0
  2 12  1  0
  3 13  1  0
  4 14  1  0
  5 15  1  0
  5 16  1  0
  6 17  1  0
  6 18  1  0
  8 19  1  0
  9 20  1  0
  9 21  1  0
M  END
