
     RDKit          3D

 19 21  0  0  0  0  0  0  0  0999 V2000
    2.9002   -0.6262   -0.6860 O   0  0  0  0  0  0  0  0  0  0  0  0
    2.1380    0.1387    0.1897 C   0  0  0  0  0  0  0  0  0  0  0  0
    0.6644    0.1227   -0.1730 C   0  0  0  0  0  0  0  0  0  0  0  0
    0.3721    0.6142   -1.4367 O   0  0  0  0  0  0  0  0  0  0  0  0
   -0.1586   -0.8657    0.5160 C   0  0  0  0  0  0  0  0  0  0  0  0
   -1.6559   -0.8597    0.4908 C   0  0  0  0  0  0  0  0  0  0  0  0
   -2.3402    0.0255   -0.4578 C   0  0  0  0  0  0  0  0  0  0  0  0
   -1.6972    0.6690    0.7037 C   0  0  0  0  0  0  0  0  0  0  0  0
   -0.2249    0.6238    0.9227 C   0  0  0  0  0  0  0  0  0  0  0  0
    3.5930   -0.0765   -1.1267 H   0  0  0  0  0  0  0  0  0  0  0  0
    2.5340    1.1791    0.2702 H   0  0  0  0  0  0  0  0  0  0  0  0
    2.2737   -0.3174    1.2108 H   0  0  0  0  0  0  0  0  0  0  0  0
    1.0038    0.3449   -2.1240 H   0  0  0  0  0  0  0  0  0  0  0  0
    0.2964   -1.5706    1.2219 H   0  0  0  0  0  0  0  0  0  0  0  0
   -2.1922   -1.4143    1.2876 H   0  0  0  0  0  0  0  0  0  0  0  0
   -1.9002    0.0686   -1.4815 H   0  0  0  0  0  0  0  0  0  0  0  0
   -3.4577   -0.0026   -0.4239 H   0  0  0  0  0  0  0  0  0  0  0  0
   -2.3164    1.0598    1.5171 H   0  0  0  0  0  0  0  0  0  0  0  0
    0.1676    0.8867    1.9113 H   0  0  0  0  0  0  0  0  0  0  0  0
  1  2  1  0
  2  3  1  0
  3  4  1  0
  3  5  1  0
  5  6  1  0
  6  7  1  0
  7  8  1  0
  8  9  1  0
  9  3  1  0
  9  5  1  0
  8  6  1  0
  1 10  1  0
  2 11  1  0
  2 12  1  0
  4 13  1  0
  5 14  1  0
  6 15  1  0
  7 16  1  0
  7 17  1  0
  8 18  1  0
  9 19  1  0
M  END
