
     RDKit          3D

 16 17  0  0  0  0  0  0  0  0999 V2000
    2.3782    0.0456   -0.6924 O   0  0  0  0  0  0  0  0  0  0  0  0
    1.6283    0.1570    0.4933 C   0  0  0  0  0  0  0  0  0  0  0  0
    0.2253    0.1238    0.1697 C   0  0  0  0  0  0  0  0  0  0  0  0
   -0.7900    0.0721    1.2537 C   0  0  0  0  0  0  0  0  0  0  0  0
   -1.9296    0.1447    0.5257 C   0  0  0  0  0  0  0  0  0  0  0  0
   -1.3568    0.2116   -0.8604 C   0  0  0  0  0  0  0  0  0  0  0  0
   -0.3124   -0.8853   -0.8069 C   0  0  0  0  0  0  0  0  0  0  0  0
   -0.3063    1.1077   -0.6776 O   0  0  0  0  0  0  0  0  0  0  0  0
    2.8127    0.8867   -0.9463 H   0  0  0  0  0  0  0  0  0  0  0  0
    1.9130    1.1317    0.9319 H   0  0  0  0  0  0  0  0  0  0  0  0
    1.8895   -0.6240    1.2089 H   0  0  0  0  0  0  0  0  0  0  0  0
   -0.6971   -0.0020    2.3292 H   0  0  0  0  0  0  0  0  0  0  0  0
   -2.9594    0.1517    0.8603 H   0  0  0  0  0  0  0  0  0  0  0  0
   -2.0011    0.2927   -1.6890 H   0  0  0  0  0  0  0  0  0  0  0  0
   -0.7047   -1.8244   -0.3436 H   0  0  0  0  0  0  0  0  0  0  0  0
    0.2105   -0.9895   -1.7563 H   0  0  0  0  0  0  0  0  0  0  0  0
  1  2  1  0
  2  3  1  0
  3  4  1  0
  4  5  2  0
  5  6  1  0
  6  7  1  0
  6  8  1  0
  7  3  1  0
  8  3  1  0
  1  9  1  0
  2 10  1  0
  2 11  1  0
  4 12  1  0
  5 13  1  0
  6 14  1  0
  7 15  1  0
  7 16  1  0
M  END
