
     RDKit          3D

 21 23  0  0  0  0  0  0  0  0999 V2000
    2.6575   -0.6990   -1.1413 O   0  0  0  0  0  0  0  0  0  0  0  0
    2.0214    0.4626   -0.6709 C   0  0  0  0  0  0  0  0  0  0  0  0
    0.5933    0.2213   -0.3646 C   0  0  0  0  0  0  0  0  0  0  0  0
    0.2087   -0.8216    0.6880 C   0  0  0  0  0  0  0  0  0  0  0  0
   -1.3093   -0.7176    0.5473 C   0  0  0  0  0  0  0  0  0  0  0  0
   -1.5035    0.7643    0.7229 C   0  0  0  0  0  0  0  0  0  0  0  0
   -0.4275    1.2619   -0.2558 C   0  0  0  0  0  0  0  0  0  0  0  0
   -0.4920    0.2977   -1.3521 C   0  0  0  0  0  0  0  0  0  0  0  0
   -1.4223   -0.8429   -0.9551 C   0  0  0  0  0  0  0  0  0  0  0  0
    3.5336   -0.7997   -0.7250 H   0  0  0  0  0  0  0  0  0  0  0  0
    2.5931    0.8245    0.2123 H   0  0  0  0  0  0  0  0  0  0  0  0
    2.0795    1.2648   -1.4341 H   0  0  0  0  0  0  0  0  0  0  0  0
    0.5494   -0.5337    1.6879 H   0  0  0  0  0  0  0  0  0  0  0  0
    0.5657   -1.8136    0.3965 H   0  0  0  0  0  0  0  0  0  0  0  0
   -1.8816   -1.3722    1.1396 H   0  0  0  0  0  0  0  0  0  0  0  0
   -2.4707    1.0327    0.2732 H   0  0  0  0  0  0  0  0  0  0  0  0
   -1.3440    1.1279    1.7343 H   0  0  0  0  0  0  0  0  0  0  0  0
   -0.2736    2.3250   -0.3693 H   0  0  0  0  0  0  0  0  0  0  0  0
   -0.3385    0.5244   -2.4063 H   0  0  0  0  0  0  0  0  0  0  0  0
   -0.9103   -1.7806   -1.2402 H   0  0  0  0  0  0  0  0  0  0  0  0
   -2.4290   -0.7260   -1.3397 H   0  0  0  0  0  0  0  0  0  0  0  0
  1  2  1  0
  2  3  1  0
  3  4  1  0
  4  5  1  0
  5  6  1  0
  6  7  1  0
  7  8  1  0
  8  9  1  0
  7  3  1  0
  8  3  1  0
  9  5  1  0
  1 10  1  0
  2 11  1  0
  2 12  1  0
  4 13  1  0
  4 14  1  0
  5 15  1  0
  6 16  1  0
  6 17  1  0
  7 18  1  0
  8 19  1  0
  9 20  1  0
  9 21  1  0
M  END
