
     RDKit          3D

 23 24  0  0  0  0  0  0  0  0999 V2000
    1.5871    1.7455    0.8230 O   0  0  0  0  0  0  0  0  0  0  0  0
    1.8285    0.4063    0.9035 C   0  0  0  0  0  0  0  0  0  0  0  0
    0.7990   -0.4866    0.3430 C   0  0  0  0  0  0  0  0  0  0  0  0
   -0.5670   -0.3395    1.0026 C   0  0  0  0  0  0  0  0  0  0  0  0
   -1.0000    0.9897    0.4375 C   0  0  0  0  0  0  0  0  0  0  0  0
   -0.3615    1.1043   -0.9322 C   0  0  0  0  0  0  0  0  0  0  0  0
    0.3622   -0.2175   -1.0515 C   0  0  0  0  0  0  0  0  0  0  0  0
   -0.7664   -1.2563   -1.1826 C   0  0  0  0  0  0  0  0  0  0  0  0
   -1.3201   -1.4103    0.2426 C   0  0  0  0  0  0  0  0  0  0  0  0
    2.2340    2.2444    0.2568 H   0  0  0  0  0  0  0  0  0  0  0  0
    2.0221    0.1552    1.9666 H   0  0  0  0  0  0  0  0  0  0  0  0
    2.7867    0.1994    0.3716 H   0  0  0  0  0  0  0  0  0  0  0  0
    1.1238   -1.5387    0.4370 H   0  0  0  0  0  0  0  0  0  0  0  0
   -0.5697   -0.4290    2.0652 H   0  0  0  0  0  0  0  0  0  0  0  0
   -2.1140    0.9003    0.2823 H   0  0  0  0  0  0  0  0  0  0  0  0
   -0.8139    1.8403    1.0860 H   0  0  0  0  0  0  0  0  0  0  0  0
   -1.1372    1.1061   -1.7399 H   0  0  0  0  0  0  0  0  0  0  0  0
    0.2539    1.9808   -1.0772 H   0  0  0  0  0  0  0  0  0  0  0  0
    1.0951   -0.2797   -1.8264 H   0  0  0  0  0  0  0  0  0  0  0  0
   -1.5979   -0.8029   -1.7681 H   0  0  0  0  0  0  0  0  0  0  0  0
   -0.4051   -2.2059   -1.5745 H   0  0  0  0  0  0  0  0  0  0  0  0
   -1.0386   -2.4078    0.6538 H   0  0  0  0  0  0  0  0  0  0  0  0
   -2.4011   -1.2983    0.2806 H   0  0  0  0  0  0  0  0  0  0  0  0
  1  2  1  0
  2  3  1  0
  3  4  1  0
  4  5  1  0
  5  6  1  0
  6  7  1  0
  7  8  1  0
  8  9  1  0
  7  3  1  0
  9  4  1  0
  1 10  1  0
  2 11  1  0
  2 12  1  0
  3 13  1  0
  4 14  1  0
  5 15  1  0
  5 16  1  0
  6 17  1  0
  6 18  1  0
  7 19  1  0
  8 20  1  0
  8 21  1  0
  9 22  1  0
  9 23  1  0
M  END
