
     RDKit          3D

 21 21  0  0  0  0  0  0  0  0999 V2000
   -2.3220   -1.7513    0.4882 O   0  0  0  0  0  0  0  0  0  0  0  0
   -1.2698   -1.5897   -0.4309 C   0  0  0  0  0  0  0  0  0  0  0  0
   -0.6108   -0.3013   -0.0994 C   0  0  0  0  0  0  0  0  0  0  0  0
    0.6480   -0.1712    0.2472 C   0  0  0  0  0  0  0  0  0  0  0  0
    1.7013   -1.2360    0.3921 C   0  0  0  0  0  0  0  0  0  0  0  0
    2.7399   -0.9707   -0.4773 O   0  0  0  0  0  0  0  0  0  0  0  0
    0.9249    1.2527    0.5044 C   0  0  0  0  0  0  0  0  0  0  0  0
   -0.1706    1.9777   -0.2089 C   0  0  0  0  0  0  0  0  0  0  0  0
   -1.3337    1.0013   -0.1371 C   0  0  0  0  0  0  0  0  0  0  0  0
   -3.0656   -1.1360    0.2522 H   0  0  0  0  0  0  0  0  0  0  0  0
   -1.7120   -1.4519   -1.4548 H   0  0  0  0  0  0  0  0  0  0  0  0
   -0.5968   -2.4451   -0.4521 H   0  0  0  0  0  0  0  0  0  0  0  0
    1.3106   -2.2517    0.2153 H   0  0  0  0  0  0  0  0  0  0  0  0
    2.0864   -1.2025    1.4531 H   0  0  0  0  0  0  0  0  0  0  0  0
    3.0880   -0.0727   -0.2895 H   0  0  0  0  0  0  0  0  0  0  0  0
    0.8330    1.5102    1.5954 H   0  0  0  0  0  0  0  0  0  0  0  0
    1.9254    1.5723    0.1419 H   0  0  0  0  0  0  0  0  0  0  0  0
    0.1237    2.1364   -1.2791 H   0  0  0  0  0  0  0  0  0  0  0  0
   -0.4718    2.9163    0.2497 H   0  0  0  0  0  0  0  0  0  0  0  0
   -1.8835    1.0908   -1.0875 H   0  0  0  0  0  0  0  0  0  0  0  0
   -1.9446    1.1225    0.7566 H   0  0  0  0  0  0  0  0  0  0  0  0
  1  2  1  0
  2  3  1  0
  3  4  2  0
  4  5  1  0
  5  6  1  0
  4  7  1  0
  7  8  1  0
  8  9  1  0
  9  3  1  0
  1 10  1  0
  2 11  1  0
  2 12  1  0
  5 13  1  0
  5 14  1  0
  6 15  1  0
  7 16  1  0
  7 17  1  0
  8 18  1  0
  8 19  1  0
  9 20  1  0
  9 21  1  0
M  END
