
     RDKit          3D

 21 23  0  0  0  0  0  0  0  0999 V2000
    2.7963    1.1196   -0.6796 O   0  0  0  0  0  0  0  0  0  0  0  0
    2.2627    0.2378    0.2296 C   0  0  0  0  0  0  0  0  0  0  0  0
    1.1320   -0.6010   -0.3745 C   0  0  0  0  0  0  0  0  0  0  0  0
    0.5238   -1.5846    0.6087 C   0  0  0  0  0  0  0  0  0  0  0  0
   -0.2376   -0.4841    0.1137 C   0  0  0  0  0  0  0  0  0  0  0  0
   -0.6366    0.7454    0.8287 C   0  0  0  0  0  0  0  0  0  0  0  0
   -1.6739    0.9697   -0.2818 C   0  0  0  0  0  0  0  0  0  0  0  0
   -2.7592   -0.0207   -0.3102 C   0  0  0  0  0  0  0  0  0  0  0  0
   -1.4450   -0.5117   -0.7342 C   0  0  0  0  0  0  0  0  0  0  0  0
    3.0072    1.9706   -0.2621 H   0  0  0  0  0  0  0  0  0  0  0  0
    3.0117   -0.5042    0.6065 H   0  0  0  0  0  0  0  0  0  0  0  0
    1.9102    0.7754    1.1465 H   0  0  0  0  0  0  0  0  0  0  0  0
    1.2854   -0.8929   -1.4173 H   0  0  0  0  0  0  0  0  0  0  0  0
    0.4027   -2.5960    0.1866 H   0  0  0  0  0  0  0  0  0  0  0  0
    0.9295   -1.6134    1.6529 H   0  0  0  0  0  0  0  0  0  0  0  0
    0.0728    1.5930    0.8019 H   0  0  0  0  0  0  0  0  0  0  0  0
   -1.1188    0.5790    1.8113 H   0  0  0  0  0  0  0  0  0  0  0  0
   -1.4711    1.6977   -1.0610 H   0  0  0  0  0  0  0  0  0  0  0  0
   -3.1462   -0.3329    0.7037 H   0  0  0  0  0  0  0  0  0  0  0  0
   -3.5423    0.1167   -1.0574 H   0  0  0  0  0  0  0  0  0  0  0  0
   -1.3035   -0.6635   -1.8220 H   0  0  0  0  0  0  0  0  0  0  0  0
  1  2  1  0
  2  3  1  0
  3  4  1  0
  4  5  1  0
  5  6  1  0
  6  7  1  0
  7  8  1  0
  8  9  1  0
  5  3  1  0
  9  7  1  0
  9  5  1  0
  1 10  1  0
  2 11  1  0
  2 12  1  0
  3 13  1  0
  4 14  1  0
  4 15  1  0
  6 16  1  0
  6 17  1  0
  7 18  1  0
  8 19  1  0
  8 20  1  0
  9 21  1  0
M  END
