
     RDKit          3D

 17 20  0  0  0  0  0  0  0  0999 V2000
   -2.4941    0.8481   -0.7567 O   0  0  0  0  0  0  0  0  0  0  0  0
   -1.9620   -0.0056    0.2152 C   0  0  0  0  0  0  0  0  0  0  0  0
   -0.5310   -0.1562    0.1320 C   0  0  0  0  0  0  0  0  0  0  0  0
    0.3519   -0.9478    0.9585 C   0  0  0  0  0  0  0  0  0  0  0  0
    1.2974   -1.1354   -0.1345 C   0  0  0  0  0  0  0  0  0  0  0  0
    0.3220   -0.2952   -1.0281 C   0  0  0  0  0  0  0  0  0  0  0  0
    1.4427    0.2660   -0.3210 C   0  0  0  0  0  0  0  0  0  0  0  0
    2.4395    1.0265   -0.7262 O   0  0  0  0  0  0  0  0  0  0  0  0
    0.5358    0.5005    0.8458 C   0  0  0  0  0  0  0  0  0  0  0  0
   -1.7919    1.4917   -0.9938 H   0  0  0  0  0  0  0  0  0  0  0  0
   -2.4704   -0.9856    0.0704 H   0  0  0  0  0  0  0  0  0  0  0  0
   -2.3185    0.3939    1.2015 H   0  0  0  0  0  0  0  0  0  0  0  0
    0.1648   -1.5290    1.8164 H   0  0  0  0  0  0  0  0  0  0  0  0
    1.6464   -1.9962   -0.6157 H   0  0  0  0  0  0  0  0  0  0  0  0
    0.1486   -0.5677   -2.0174 H   0  0  0  0  0  0  0  0  0  0  0  0
    2.6415    1.8440   -0.2136 H   0  0  0  0  0  0  0  0  0  0  0  0
    0.5773    1.2484    1.5674 H   0  0  0  0  0  0  0  0  0  0  0  0
  1  2  1  0
  2  3  1  0
  3  4  1  0
  4  5  1  0
  5  6  1  0
  6  7  1  0
  7  8  1  0
  7  9  1  0
  6  3  1  0
  9  3  1  0
  9  4  1  0
  7  5  1  0
  1 10  1  0
  2 11  1  0
  2 12  1  0
  4 13  1  0
  5 14  1  0
  6 15  1  0
  8 16  1  0
  9 17  1  0
M  END
