
     RDKit          3D

 21 21  0  0  0  0  0  0  0  0999 V2000
    1.8146   -0.4467    1.0905 O   0  0  0  0  0  0  0  0  0  0  0  0
    1.8108    0.2241   -0.1186 C   0  0  0  0  0  0  0  0  0  0  0  0
    0.3865    0.4146   -0.6491 C   0  0  0  0  0  0  0  0  0  0  0  0
    0.5360    1.0977   -1.8601 O   0  0  0  0  0  0  0  0  0  0  0  0
   -0.3623    1.2801    0.2807 C   0  0  0  0  0  0  0  0  0  0  0  0
   -1.5827    0.6921    0.8585 C   0  0  0  0  0  0  0  0  0  0  0  0
   -1.9317   -0.5730    0.8121 C   0  0  0  0  0  0  0  0  0  0  0  0
   -1.0355   -1.5161    0.1225 C   0  0  0  0  0  0  0  0  0  0  0  0
   -0.2219   -0.9094   -0.9749 C   0  0  0  0  0  0  0  0  0  0  0  0
    2.7429   -0.6388    1.3218 H   0  0  0  0  0  0  0  0  0  0  0  0
    2.3197   -0.4185   -0.8901 H   0  0  0  0  0  0  0  0  0  0  0  0
    2.3154    1.2084   -0.0832 H   0  0  0  0  0  0  0  0  0  0  0  0
    0.8717    2.0111   -1.6123 H   0  0  0  0  0  0  0  0  0  0  0  0
    0.2797    1.5960    1.1565 H   0  0  0  0  0  0  0  0  0  0  0  0
   -0.6654    2.2553   -0.1878 H   0  0  0  0  0  0  0  0  0  0  0  0
   -2.2625    1.3913    1.3788 H   0  0  0  0  0  0  0  0  0  0  0  0
   -2.8369   -0.9086    1.2600 H   0  0  0  0  0  0  0  0  0  0  0  0
   -1.6643   -2.3271   -0.2973 H   0  0  0  0  0  0  0  0  0  0  0  0
   -0.3122   -1.9101    0.8862 H   0  0  0  0  0  0  0  0  0  0  0  0
    0.6248   -1.6204   -1.1815 H   0  0  0  0  0  0  0  0  0  0  0  0
   -0.8269   -0.9018   -1.9055 H   0  0  0  0  0  0  0  0  0  0  0  0
  1  2  1  0
  2  3  1  0
  3  4  1  0
  3  5  1  0
  5  6  1  0
  6  7  2  0
  7  8  1  0
  8  9  1  0
  9  3  1  0
  1 10  1  0
  2 11  1  0
  2 12  1  0
  4 13  1  0
  5 14  1  0
  5 15  1  0
  6 16  1  0
  7 17  1  0
  8 18  1  0
  8 19  1  0
  9 20  1  0
  9 21  1  0
M  END
