
     RDKit          3D

 18 19  0  0  0  0  0  0  0  0999 V2000
    2.9272    0.1485   -0.4454 O   0  0  0  0  0  0  0  0  0  0  0  0
    2.0819   -0.6421    0.3055 C   0  0  0  0  0  0  0  0  0  0  0  0
    0.6869   -0.1016    0.1955 C   0  0  0  0  0  0  0  0  0  0  0  0
    0.2610    0.9527   -0.4884 C   0  0  0  0  0  0  0  0  0  0  0  0
   -1.1786    1.1669   -0.3508 C   0  0  0  0  0  0  0  0  0  0  0  0
   -2.1471    0.1221   -0.7519 C   0  0  0  0  0  0  0  0  0  0  0  0
   -1.6132    0.1709    0.6529 C   0  0  0  0  0  0  0  0  0  0  0  0
   -0.4466   -0.7530    0.9034 C   0  0  0  0  0  0  0  0  0  0  0  0
    3.8522   -0.1788   -0.2825 H   0  0  0  0  0  0  0  0  0  0  0  0
    2.0549   -1.6941   -0.0055 H   0  0  0  0  0  0  0  0  0  0  0  0
    2.3573   -0.5946    1.3948 H   0  0  0  0  0  0  0  0  0  0  0  0
    0.9255    1.5735   -1.0782 H   0  0  0  0  0  0  0  0  0  0  0  0
   -1.5665    2.2182   -0.2844 H   0  0  0  0  0  0  0  0  0  0  0  0
   -3.2138    0.4044   -0.8328 H   0  0  0  0  0  0  0  0  0  0  0  0
   -1.8704   -0.7211   -1.4084 H   0  0  0  0  0  0  0  0  0  0  0  0
   -2.2211    0.5457    1.4783 H   0  0  0  0  0  0  0  0  0  0  0  0
   -0.6435   -1.7107    0.3785 H   0  0  0  0  0  0  0  0  0  0  0  0
   -0.2461   -0.9068    1.9832 H   0  0  0  0  0  0  0  0  0  0  0  0
  1  2  1  0
  2  3  1  0
  3  4  2  0
  4  5  1  0
  5  6  1  0
  6  7  1  0
  7  8  1  0
  8  3  1  0
  7  5  1  0
  1  9  1  0
  2 10  1  0
  2 11  1  0
  4 12  1  0
  5 13  1  0
  6 14  1  0
  6 15  1  0
  7 16  1  0
  8 17  1  0
  8 18  1  0
M  END
