
     RDKit          3D

 18 19  0  0  0  0  0  0  0  0999 V2000
    1.8014    0.8423    1.1209 O   0  0  0  0  0  0  0  0  0  0  0  0
    1.6077   -0.2955    0.3819 C   0  0  0  0  0  0  0  0  0  0  0  0
    0.5761   -0.2369   -0.6890 C   0  0  0  0  0  0  0  0  0  0  0  0
   -0.5280   -1.1925   -0.5412 C   0  0  0  0  0  0  0  0  0  0  0  0
   -1.4807   -0.4078    0.3767 C   0  0  0  0  0  0  0  0  0  0  0  0
   -0.9271    1.0275    0.3282 C   0  0  0  0  0  0  0  0  0  0  0  0
   -0.2899    0.9871   -0.9839 C   0  0  0  0  0  0  0  0  0  0  0  0
    0.8449    0.7266   -1.5616 O   0  0  0  0  0  0  0  0  0  0  0  0
    2.7290    1.1651    1.1630 H   0  0  0  0  0  0  0  0  0  0  0  0
    1.5508   -1.2191    1.0033 H   0  0  0  0  0  0  0  0  0  0  0  0
    2.5895   -0.4477   -0.1718 H   0  0  0  0  0  0  0  0  0  0  0  0
   -0.2102   -2.0744    0.0380 H   0  0  0  0  0  0  0  0  0  0  0  0
   -1.0052   -1.4708   -1.4862 H   0  0  0  0  0  0  0  0  0  0  0  0
   -1.4902   -0.8017    1.3927 H   0  0  0  0  0  0  0  0  0  0  0  0
   -2.4389   -0.3804   -0.1329 H   0  0  0  0  0  0  0  0  0  0  0  0
   -1.8175    1.7134    0.3003 H   0  0  0  0  0  0  0  0  0  0  0  0
   -0.3741    1.2651    1.2179 H   0  0  0  0  0  0  0  0  0  0  0  0
   -1.1376    0.7997   -1.7563 H   0  0  0  0  0  0  0  0  0  0  0  0
  1  2  1  0
  2  3  1  0
  3  4  1  0
  4  5  1  0
  5  6  1  0
  6  7  1  0
  7  8  1  0
  7  3  1  0
  8  3  1  0
  1  9  1  0
  2 10  1  0
  2 11  1  0
  4 12  1  0
  4 13  1  0
  5 14  1  0
  5 15  1  0
  6 16  1  0
  6 17  1  0
  7 18  1  0
M  END
