
     RDKit          3D

 21 22  0  0  0  0  0  0  0  0999 V2000
    1.3080   -1.8247   -0.1860 O   0  0  0  0  0  0  0  0  0  0  0  0
    1.2828   -0.9898    0.9239 C   0  0  0  0  0  0  0  0  0  0  0  0
    0.4984    0.2767    0.6631 C   0  0  0  0  0  0  0  0  0  0  0  0
    1.0284    1.1249   -0.4602 C   0  0  0  0  0  0  0  0  0  0  0  0
    1.3618    2.4193   -0.1573 O   0  0  0  0  0  0  0  0  0  0  0  0
   -0.3723    1.0780   -1.0875 C   0  0  0  0  0  0  0  0  0  0  0  0
   -0.7280    0.0267   -0.1161 C   0  0  0  0  0  0  0  0  0  0  0  0
   -1.3025   -1.2660   -0.4228 C   0  0  0  0  0  0  0  0  0  0  0  0
   -2.0513   -0.2207    0.4251 C   0  0  0  0  0  0  0  0  0  0  0  0
    2.1570   -1.6505   -0.7038 H   0  0  0  0  0  0  0  0  0  0  0  0
    0.7611   -1.5006    1.7805 H   0  0  0  0  0  0  0  0  0  0  0  0
    2.3071   -0.8037    1.2659 H   0  0  0  0  0  0  0  0  0  0  0  0
    0.2818    0.8114    1.6080 H   0  0  0  0  0  0  0  0  0  0  0  0
    1.7916    0.6052   -1.0329 H   0  0  0  0  0  0  0  0  0  0  0  0
    0.7073    2.9138    0.3539 H   0  0  0  0  0  0  0  0  0  0  0  0
   -0.3289    0.8172   -2.1517 H   0  0  0  0  0  0  0  0  0  0  0  0
   -0.9476    2.0292   -0.9290 H   0  0  0  0  0  0  0  0  0  0  0  0
   -0.9762   -2.1606    0.1788 H   0  0  0  0  0  0  0  0  0  0  0  0
   -1.7079   -1.5418   -1.3940 H   0  0  0  0  0  0  0  0  0  0  0  0
   -2.1570   -0.4240    1.5104 H   0  0  0  0  0  0  0  0  0  0  0  0
   -2.9135    0.2801   -0.0682 H   0  0  0  0  0  0  0  0  0  0  0  0
  1  2  1  0
  2  3  1  0
  3  4  1  0
  4  5  1  0
  4  6  1  0
  6  7  1  0
  7  8  1  0
  8  9  1  0
  7  3  1  0
  9  7  1  0
  1 10  1  0
  2 11  1  0
  2 12  1  0
  3 13  1  0
  4 14  1  0
  5 15  1  0
  6 16  1  0
  6 17  1  0
  8 18  1  0
  8 19  1  0
  9 20  1  0
  9 21  1  0
M  END
