
     RDKit          3D

 21 22  0  0  0  0  0  0  0  0999 V2000
   -2.4742    1.3170   -0.2751 O   0  0  0  0  0  0  0  0  0  0  0  0
   -2.1552    0.0010    0.1326 C   0  0  0  0  0  0  0  0  0  0  0  0
   -0.7226   -0.2272   -0.2245 C   0  0  0  0  0  0  0  0  0  0  0  0
   -0.1509   -1.5673    0.1141 C   0  0  0  0  0  0  0  0  0  0  0  0
    1.0540   -0.8508    0.7028 C   0  0  0  0  0  0  0  0  0  0  0  0
    2.0458   -0.4219   -0.3345 C   0  0  0  0  0  0  0  0  0  0  0  0
    2.2452    0.9295   -0.0908 O   0  0  0  0  0  0  0  0  0  0  0  0
    1.0229    1.4781    0.2527 C   0  0  0  0  0  0  0  0  0  0  0  0
    0.1806    0.3765    0.8403 C   0  0  0  0  0  0  0  0  0  0  0  0
   -2.3780    1.9314    0.5093 H   0  0  0  0  0  0  0  0  0  0  0  0
   -2.8255   -0.6553   -0.4572 H   0  0  0  0  0  0  0  0  0  0  0  0
   -2.3067   -0.0540    1.2126 H   0  0  0  0  0  0  0  0  0  0  0  0
   -0.4567    0.0926   -1.2527 H   0  0  0  0  0  0  0  0  0  0  0  0
   -0.7035   -2.1719    0.8447 H   0  0  0  0  0  0  0  0  0  0  0  0
    0.1767   -2.1212   -0.7900 H   0  0  0  0  0  0  0  0  0  0  0  0
    1.4336   -1.2399    1.6438 H   0  0  0  0  0  0  0  0  0  0  0  0
    1.6292   -0.5869   -1.3496 H   0  0  0  0  0  0  0  0  0  0  0  0
    3.0233   -0.9556   -0.1999 H   0  0  0  0  0  0  0  0  0  0  0  0
    0.5305    1.8619   -0.6773 H   0  0  0  0  0  0  0  0  0  0  0  0
    1.1004    2.3132    0.9719 H   0  0  0  0  0  0  0  0  0  0  0  0
   -0.2688    0.5507    1.8113 H   0  0  0  0  0  0  0  0  0  0  0  0
  1  2  1  0
  2  3  1  0
  3  4  1  0
  4  5  1  0
  5  6  1  0
  6  7  1  0
  7  8  1  0
  8  9  1  0
  9  3  1  0
  9  5  1  0
  1 10  1  0
  2 11  1  0
  2 12  1  0
  3 13  1  0
  4 14  1  0
  4 15  1  0
  5 16  1  0
  6 17  1  0
  6 18  1  0
  8 19  1  0
  8 20  1  0
  9 21  1  0
M  END
