
     RDKit          3D

 19 21  0  0  0  0  0  0  0  0999 V2000
    2.6737   -0.7942    0.2192 O   0  0  0  0  0  0  0  0  0  0  0  0
    1.6203   -0.7759   -0.6989 C   0  0  0  0  0  0  0  0  0  0  0  0
    0.5151    0.0208   -0.0907 C   0  0  0  0  0  0  0  0  0  0  0  0
    0.8681    1.4577    0.2410 C   0  0  0  0  0  0  0  0  0  0  0  0
   -0.2018    1.0985   -0.7382 C   0  0  0  0  0  0  0  0  0  0  0  0
   -1.5007    0.6726   -0.0904 C   0  0  0  0  0  0  0  0  0  0  0  0
   -1.9760   -0.6879   -0.3737 C   0  0  0  0  0  0  0  0  0  0  0  0
   -0.7313   -0.5849    0.4060 C   0  0  0  0  0  0  0  0  0  0  0  0
   -0.7912   -0.8356    1.7749 O   0  0  0  0  0  0  0  0  0  0  0  0
    2.3489   -0.6081    1.1164 H   0  0  0  0  0  0  0  0  0  0  0  0
    1.9949   -0.2122   -1.5872 H   0  0  0  0  0  0  0  0  0  0  0  0
    1.3351   -1.7684   -1.0479 H   0  0  0  0  0  0  0  0  0  0  0  0
    0.5911    1.7374    1.2843 H   0  0  0  0  0  0  0  0  0  0  0  0
    1.8287    1.8357   -0.0958 H   0  0  0  0  0  0  0  0  0  0  0  0
   -0.1561    1.3777   -1.7849 H   0  0  0  0  0  0  0  0  0  0  0  0
   -1.9261    1.3161    0.6977 H   0  0  0  0  0  0  0  0  0  0  0  0
   -1.9616   -0.9734   -1.4600 H   0  0  0  0  0  0  0  0  0  0  0  0
   -2.8672   -1.0499    0.1790 H   0  0  0  0  0  0  0  0  0  0  0  0
   -1.6640   -1.2260    2.0493 H   0  0  0  0  0  0  0  0  0  0  0  0
  1  2  1  0
  2  3  1  0
  3  4  1  0
  4  5  1  0
  5  6  1  0
  6  7  1  0
  7  8  1  0
  8  9  1  0
  5  3  1  0
  8  6  1  0
  8  3  1  0
  1 10  1  0
  2 11  1  0
  2 12  1  0
  4 13  1  0
  4 14  1  0
  5 15  1  0
  6 16  1  0
  7 17  1  0
  7 18  1  0
  9 19  1  0
M  END
