
     RDKit          3D

 18 18  0  0  0  0  0  0  0  0999 V2000
   -2.3151   -0.3959   -1.5924 O   0  0  0  0  0  0  0  0  0  0  0  0
   -1.6685    0.2200   -0.5264 C   0  0  0  0  0  0  0  0  0  0  0  0
   -0.6861   -0.6970    0.1518 C   0  0  0  0  0  0  0  0  0  0  0  0
    0.0340   -0.0416    1.3235 C   0  0  0  0  0  0  0  0  0  0  0  0
    0.2638   -0.8049    2.4623 O   0  0  0  0  0  0  0  0  0  0  0  0
    0.7639   -0.4997    0.0742 C   0  0  0  0  0  0  0  0  0  0  0  0
    1.4198    0.5688   -0.7238 C   0  0  0  0  0  0  0  0  0  0  0  0
    2.8011    0.4620   -0.5678 O   0  0  0  0  0  0  0  0  0  0  0  0
   -3.0859    0.2078   -1.8301 H   0  0  0  0  0  0  0  0  0  0  0  0
   -1.1707    1.1631   -0.8740 H   0  0  0  0  0  0  0  0  0  0  0  0
   -2.4150    0.5008    0.2749 H   0  0  0  0  0  0  0  0  0  0  0  0
   -1.0790   -1.6987    0.3872 H   0  0  0  0  0  0  0  0  0  0  0  0
   -0.1025    1.0232    1.5170 H   0  0  0  0  0  0  0  0  0  0  0  0
    0.3043   -1.7596    2.1951 H   0  0  0  0  0  0  0  0  0  0  0  0
    1.3814   -1.4441    0.1501 H   0  0  0  0  0  0  0  0  0  0  0  0
    1.2228    0.3541   -1.8146 H   0  0  0  0  0  0  0  0  0  0  0  0
    1.1379    1.5917   -0.4490 H   0  0  0  0  0  0  0  0  0  0  0  0
    3.1938    1.2501   -0.1578 H   0  0  0  0  0  0  0  0  0  0  0  0
  1  2  1  0
  2  3  1  0
  3  4  1  0
  4  5  1  0
  4  6  1  0
  6  7  1  0
  7  8  1  0
  6  3  1  0
  1  9  1  0
  2 10  1  0
  2 11  1  0
  3 12  1  0
  4 13  1  0
  5 14  1  0
  6 15  1  0
  7 16  1  0
  7 17  1  0
  8 18  1  0
M  END
