
     RDKit          3D

 15 15  0  0  0  0  0  0  0  0999 V2000
    2.5098    0.1919   -0.5366 O   0  0  0  0  0  0  0  0  0  0  0  0
    1.4358   -0.0000    0.2967 C   0  0  0  0  0  0  0  0  0  0  0  0
    0.1590   -0.3317   -0.4118 C   0  0  0  0  0  0  0  0  0  0  0  0
   -1.0161   -0.5388    0.5465 C   0  0  0  0  0  0  0  0  0  0  0  0
   -1.8351   -1.6313    0.3541 O   0  0  0  0  0  0  0  0  0  0  0  0
   -0.9832    0.5693   -0.4908 C   0  0  0  0  0  0  0  0  0  0  0  0
   -0.9610    1.8780   -0.0670 O   0  0  0  0  0  0  0  0  0  0  0  0
    2.3332    0.9824   -1.0956 H   0  0  0  0  0  0  0  0  0  0  0  0
    1.6770   -0.8825    0.9569 H   0  0  0  0  0  0  0  0  0  0  0  0
    1.3180    0.8599    0.9877 H   0  0  0  0  0  0  0  0  0  0  0  0
    0.2827   -1.1153   -1.2037 H   0  0  0  0  0  0  0  0  0  0  0  0
   -0.9146   -0.2146    1.5891 H   0  0  0  0  0  0  0  0  0  0  0  0
   -1.6497   -2.1099   -0.4698 H   0  0  0  0  0  0  0  0  0  0  0  0
   -1.7078    0.3857   -1.3242 H   0  0  0  0  0  0  0  0  0  0  0  0
   -0.6482    1.9571    0.8685 H   0  0  0  0  0  0  0  0  0  0  0  0
  1  2  1  0
  2  3  1  0
  3  4  1  0
  4  5  1  0
  4  6  1  0
  6  7  1  0
  6  3  1  0
  1  8  1  0
  2  9  1  0
  2 10  1  0
  3 11  1  0
  4 12  1  0
  5 13  1  0
  6 14  1  0
  7 15  1  0
M  END
