
     RDKit          3D

 19 19  0  0  0  0  0  0  0  0999 V2000
    1.8666    1.3435    0.5157 O   0  0  0  0  0  0  0  0  0  0  0  0
    1.4106    0.6671   -0.6163 C   0  0  0  0  0  0  0  0  0  0  0  0
    0.6546   -0.5488   -0.1239 C   0  0  0  0  0  0  0  0  0  0  0  0
    1.4636   -1.4075    0.6405 O   0  0  0  0  0  0  0  0  0  0  0  0
   -0.4034   -1.1659   -0.9338 C   0  0  0  0  0  0  0  0  0  0  0  0
   -0.7343   -0.3693    0.3160 C   0  0  0  0  0  0  0  0  0  0  0  0
   -1.1909   -1.0890    1.4368 O   0  0  0  0  0  0  0  0  0  0  0  0
   -1.5150    0.8827    0.0605 C   0  0  0  0  0  0  0  0  0  0  0  0
   -1.3926    1.7016    1.2003 O   0  0  0  0  0  0  0  0  0  0  0  0
    2.3210    0.6801    1.0957 H   0  0  0  0  0  0  0  0  0  0  0  0
    0.8117    1.3313   -1.2447 H   0  0  0  0  0  0  0  0  0  0  0  0
    2.3273    0.2713   -1.1415 H   0  0  0  0  0  0  0  0  0  0  0  0
    2.0110   -1.9087   -0.0153 H   0  0  0  0  0  0  0  0  0  0  0  0
   -0.6825   -0.7343   -1.9239 H   0  0  0  0  0  0  0  0  0  0  0  0
   -0.5410   -2.2597   -0.8590 H   0  0  0  0  0  0  0  0  0  0  0  0
   -0.8188   -1.9989    1.4186 H   0  0  0  0  0  0  0  0  0  0  0  0
   -1.1987    1.4225   -0.8452 H   0  0  0  0  0  0  0  0  0  0  0  0
   -2.5911    0.6142    0.0072 H   0  0  0  0  0  0  0  0  0  0  0  0
   -1.7982    2.5679    1.0123 H   0  0  0  0  0  0  0  0  0  0  0  0
  1  2  1  0
  2  3  1  0
  3  4  1  0
  3  5  1  0
  5  6  1  0
  6  7  1  0
  6  8  1  0
  8  9  1  0
  6  3  1  0
  1 10  1  0
  2 11  1  0
  2 12  1  0
  4 13  1  0
  5 14  1  0
  5 15  1  0
  7 16  1  0
  8 17  1  0
  8 18  1  0
  9 19  1  0
M  END
