
     RDKit          3D

 17 17  0  0  0  0  0  0  0  0999 V2000
    2.6877    0.4633    0.3747 O   0  0  0  0  0  0  0  0  0  0  0  0
    1.7820   -0.3668   -0.2692 C   0  0  0  0  0  0  0  0  0  0  0  0
    0.4357   -0.2415    0.4060 C   0  0  0  0  0  0  0  0  0  0  0  0
   -0.0831    1.1451    0.3579 C   0  0  0  0  0  0  0  0  0  0  0  0
   -1.3977    1.1019    0.2338 C   0  0  0  0  0  0  0  0  0  0  0  0
   -1.8880   -0.3050    0.1864 C   0  0  0  0  0  0  0  0  0  0  0  0
   -0.6263   -1.0659   -0.2382 C   0  0  0  0  0  0  0  0  0  0  0  0
    2.4845    1.4013    0.1640 H   0  0  0  0  0  0  0  0  0  0  0  0
    1.6486    0.0596   -1.2999 H   0  0  0  0  0  0  0  0  0  0  0  0
    2.1110   -1.4082   -0.3645 H   0  0  0  0  0  0  0  0  0  0  0  0
    0.4904   -0.5496    1.4841 H   0  0  0  0  0  0  0  0  0  0  0  0
    0.5371    2.0541    0.4171 H   0  0  0  0  0  0  0  0  0  0  0  0
   -2.0140    1.9985    0.1764 H   0  0  0  0  0  0  0  0  0  0  0  0
   -2.6951   -0.4271   -0.5556 H   0  0  0  0  0  0  0  0  0  0  0  0
   -2.2071   -0.6378    1.1968 H   0  0  0  0  0  0  0  0  0  0  0  0
   -0.6990   -2.0926    0.2018 H   0  0  0  0  0  0  0  0  0  0  0  0
   -0.5666   -1.1292   -1.3247 H   0  0  0  0  0  0  0  0  0  0  0  0
  1  2  1  0
  2  3  1  0
  3  4  1  0
  4  5  2  0
  5  6  1  0
  6  7  1  0
  7  3  1  0
  1  8  1  0
  2  9  1  0
  2 10  1  0
  3 11  1  0
  4 12  1  0
  5 13  1  0
  6 14  1  0
  6 15  1  0
  7 16  1  0
  7 17  1  0
M  END
