
     RDKit          3D

 21 21  0  0  0  0  0  0  0  0999 V2000
    2.0385   -0.0547    1.3444 O   0  0  0  0  0  0  0  0  0  0  0  0
    2.1377   -0.4595    0.0140 C   0  0  0  0  0  0  0  0  0  0  0  0
    0.8215   -0.2102   -0.7365 C   0  0  0  0  0  0  0  0  0  0  0  0
    0.5528    1.2243   -0.6726 C   0  0  0  0  0  0  0  0  0  0  0  0
   -0.5813    1.7256   -0.2740 C   0  0  0  0  0  0  0  0  0  0  0  0
   -1.7155    0.8923    0.1557 C   0  0  0  0  0  0  0  0  0  0  0  0
   -1.6077   -0.5412   -0.1503 C   0  0  0  0  0  0  0  0  0  0  0  0
   -2.2812   -1.2671    0.8487 O   0  0  0  0  0  0  0  0  0  0  0  0
   -0.2279   -1.1044   -0.2442 C   0  0  0  0  0  0  0  0  0  0  0  0
    2.7670   -0.5051    1.8473 H   0  0  0  0  0  0  0  0  0  0  0  0
    2.4437   -1.5155   -0.0662 H   0  0  0  0  0  0  0  0  0  0  0  0
    2.9649    0.1547   -0.4391 H   0  0  0  0  0  0  0  0  0  0  0  0
    1.0700   -0.4534   -1.8113 H   0  0  0  0  0  0  0  0  0  0  0  0
    1.3425    1.9067   -0.9742 H   0  0  0  0  0  0  0  0  0  0  0  0
   -0.7053    2.8124   -0.2545 H   0  0  0  0  0  0  0  0  0  0  0  0
   -2.6422    1.3380   -0.3141 H   0  0  0  0  0  0  0  0  0  0  0  0
   -1.8623    1.0921    1.2585 H   0  0  0  0  0  0  0  0  0  0  0  0
   -2.1646   -0.7584   -1.0953 H   0  0  0  0  0  0  0  0  0  0  0  0
   -2.1397   -0.7654    1.7033 H   0  0  0  0  0  0  0  0  0  0  0  0
   -0.2864   -2.0077   -0.9023 H   0  0  0  0  0  0  0  0  0  0  0  0
    0.0757   -1.5033    0.7630 H   0  0  0  0  0  0  0  0  0  0  0  0
  1  2  1  0
  2  3  1  0
  3  4  1  0
  4  5  2  0
  5  6  1  0
  6  7  1  0
  7  8  1  0
  7  9  1  0
  9  3  1  0
  1 10  1  0
  2 11  1  0
  2 12  1  0
  3 13  1  0
  4 14  1  0
  5 15  1  0
  6 16  1  0
  6 17  1  0
  7 18  1  0
  8 19  1  0
  9 20  1  0
  9 21  1  0
M  END
