
     RDKit          3D

 18 19  0  0  0  0  0  0  0  0999 V2000
    2.5358    0.7659    0.1729 O   0  0  0  0  0  0  0  0  0  0  0  0
    1.7029   -0.2697    0.5935 C   0  0  0  0  0  0  0  0  0  0  0  0
    0.3840   -0.1288   -0.0714 C   0  0  0  0  0  0  0  0  0  0  0  0
    0.5035   -0.1861   -1.4542 O   0  0  0  0  0  0  0  0  0  0  0  0
   -0.6444   -1.1556    0.3687 C   0  0  0  0  0  0  0  0  0  0  0  0
   -1.6850   -0.1151    0.5373 C   0  0  0  0  0  0  0  0  0  0  0  0
   -1.8129    1.0756   -0.3090 C   0  0  0  0  0  0  0  0  0  0  0  0
   -0.5356    0.9406    0.4479 C   0  0  0  0  0  0  0  0  0  0  0  0
    3.0342    1.1362    0.9192 H   0  0  0  0  0  0  0  0  0  0  0  0
    1.6522   -0.3164    1.6957 H   0  0  0  0  0  0  0  0  0  0  0  0
    2.1712   -1.2143    0.2433 H   0  0  0  0  0  0  0  0  0  0  0  0
    0.6391   -1.1488   -1.6798 H   0  0  0  0  0  0  0  0  0  0  0  0
   -0.3129   -1.5840    1.3573 H   0  0  0  0  0  0  0  0  0  0  0  0
   -0.8201   -1.9776   -0.3238 H   0  0  0  0  0  0  0  0  0  0  0  0
   -2.2500   -0.1454    1.4774 H   0  0  0  0  0  0  0  0  0  0  0  0
   -1.6774    1.0360   -1.4253 H   0  0  0  0  0  0  0  0  0  0  0  0
   -2.5366    1.8341   -0.0047 H   0  0  0  0  0  0  0  0  0  0  0  0
   -0.3481    1.4536    1.3869 H   0  0  0  0  0  0  0  0  0  0  0  0
  1  2  1  0
  2  3  1  0
  3  4  1  0
  3  5  1  0
  5  6  1  0
  6  7  1  0
  7  8  1  0
  8  3  1  0
  8  6  1  0
  1  9  1  0
  2 10  1  0
  2 11  1  0
  4 12  1  0
  5 13  1  0
  5 14  1  0
  6 15  1  0
  7 16  1  0
  7 17  1  0
  8 18  1  0
M  END
