
     RDKit          3D

 21 22  0  0  0  0  0  0  0  0999 V2000
    3.3405    0.3830   -0.4752 O   0  0  0  0  0  0  0  0  0  0  0  0
    2.3311    0.3225    0.4492 C   0  0  0  0  0  0  0  0  0  0  0  0
    1.2160   -0.6198   -0.0010 C   0  0  0  0  0  0  0  0  0  0  0  0
    0.0895   -0.8138    0.8174 C   0  0  0  0  0  0  0  0  0  0  0  0
   -1.2391   -1.4193    0.6358 C   0  0  0  0  0  0  0  0  0  0  0  0
   -2.0603   -0.1776    0.2280 C   0  0  0  0  0  0  0  0  0  0  0  0
   -0.9853    0.8763   -0.1223 C   0  0  0  0  0  0  0  0  0  0  0  0
   -1.4700    1.7258   -1.0778 O   0  0  0  0  0  0  0  0  0  0  0  0
    0.0730   -0.0566   -0.5750 C   0  0  0  0  0  0  0  0  0  0  0  0
    3.6254    1.3011   -0.7140 H   0  0  0  0  0  0  0  0  0  0  0  0
    1.9164    1.3553    0.5692 H   0  0  0  0  0  0  0  0  0  0  0  0
    2.7570   -0.0207    1.4110 H   0  0  0  0  0  0  0  0  0  0  0  0
    1.6843   -1.5449   -0.4515 H   0  0  0  0  0  0  0  0  0  0  0  0
    0.0571   -0.1421    1.7315 H   0  0  0  0  0  0  0  0  0  0  0  0
   -1.6513   -1.8739    1.5457 H   0  0  0  0  0  0  0  0  0  0  0  0
   -1.1926   -2.1380   -0.2250 H   0  0  0  0  0  0  0  0  0  0  0  0
   -2.5658   -0.4026   -0.7333 H   0  0  0  0  0  0  0  0  0  0  0  0
   -2.7118    0.1578    1.0255 H   0  0  0  0  0  0  0  0  0  0  0  0
   -0.7643    1.3734    0.8544 H   0  0  0  0  0  0  0  0  0  0  0  0
   -2.0806    2.3714   -0.6301 H   0  0  0  0  0  0  0  0  0  0  0  0
   -0.3690   -0.6571   -1.4362 H   0  0  0  0  0  0  0  0  0  0  0  0
  1  2  1  0
  2  3  1  0
  3  4  1  0
  4  5  1  0
  5  6  1  0
  6  7  1  0
  7  8  1  0
  7  9  1  0
  9  3  1  0
  9  4  1  0
  1 10  1  0
  2 11  1  0
  2 12  1  0
  3 13  1  0
  4 14  1  0
  5 15  1  0
  5 16  1  0
  6 17  1  0
  6 18  1  0
  7 19  1  0
  8 20  1  0
  9 21  1  0
M  END
