
     RDKit          3D

 19 20  0  0  0  0  0  0  0  0999 V2000
    1.7612   -1.2935   -0.4692 O   0  0  0  0  0  0  0  0  0  0  0  0
    1.4953   -0.3446    0.4925 C   0  0  0  0  0  0  0  0  0  0  0  0
    0.3333    0.5807    0.0736 C   0  0  0  0  0  0  0  0  0  0  0  0
    0.5448    1.2981   -1.1046 C   0  0  0  0  0  0  0  0  0  0  0  0
   -0.3293    0.2234   -1.3236 C   0  0  0  0  0  0  0  0  0  0  0  0
   -0.3286   -1.1090   -1.0166 O   0  0  0  0  0  0  0  0  0  0  0  0
   -1.2149   -1.0962    0.0989 C   0  0  0  0  0  0  0  0  0  0  0  0
   -0.8825    0.2144    0.8437 C   0  0  0  0  0  0  0  0  0  0  0  0
   -1.9178    1.1119    0.7704 O   0  0  0  0  0  0  0  0  0  0  0  0
    2.3212   -1.9837   -0.0734 H   0  0  0  0  0  0  0  0  0  0  0  0
    1.4009   -0.7144    1.5100 H   0  0  0  0  0  0  0  0  0  0  0  0
    2.3883    0.3507    0.4961 H   0  0  0  0  0  0  0  0  0  0  0  0
    1.5526    1.2806   -1.6061 H   0  0  0  0  0  0  0  0  0  0  0  0
    0.1613    2.3605   -1.1584 H   0  0  0  0  0  0  0  0  0  0  0  0
   -1.4204    0.5214   -1.4379 H   0  0  0  0  0  0  0  0  0  0  0  0
   -2.2314   -1.0308   -0.3462 H   0  0  0  0  0  0  0  0  0  0  0  0
   -1.0644   -1.9651    0.7431 H   0  0  0  0  0  0  0  0  0  0  0  0
   -0.6672   -0.0533    1.8830 H   0  0  0  0  0  0  0  0  0  0  0  0
   -1.9025    1.6487    1.6247 H   0  0  0  0  0  0  0  0  0  0  0  0
  1  2  1  0
  2  3  1  0
  3  4  1  0
  4  5  1  0
  5  6  1  0
  6  7  1  0
  7  8  1  0
  8  9  1  0
  5  3  1  0
  8  3  1  0
  1 10  1  0
  2 11  1  0
  2 12  1  0
  4 13  1  0
  4 14  1  0
  5 15  1  0
  7 16  1  0
  7 17  1  0
  8 18  1  0
  9 19  1  0
M  END
