
     RDKit          3D

 19 20  0  0  0  0  0  0  0  0999 V2000
    2.2341   -1.6838    0.2531 O   0  0  0  0  0  0  0  0  0  0  0  0
    2.2652   -0.3153    0.0848 C   0  0  0  0  0  0  0  0  0  0  0  0
    0.8933    0.2323   -0.0540 C   0  0  0  0  0  0  0  0  0  0  0  0
   -0.2618   -0.3941   -0.0358 C   0  0  0  0  0  0  0  0  0  0  0  0
   -1.4190   -1.3060    0.0184 C   0  0  0  0  0  0  0  0  0  0  0  0
   -2.1361   -0.1095    0.6994 C   0  0  0  0  0  0  0  0  0  0  0  0
   -1.3187    0.6840   -0.2868 C   0  0  0  0  0  0  0  0  0  0  0  0
   -0.7094    1.8447    0.1624 O   0  0  0  0  0  0  0  0  0  0  0  0
    0.6391    1.7154   -0.2179 C   0  0  0  0  0  0  0  0  0  0  0  0
    1.9291   -2.0775   -0.6162 H   0  0  0  0  0  0  0  0  0  0  0  0
    2.7583    0.1936    0.9480 H   0  0  0  0  0  0  0  0  0  0  0  0
    2.8656   -0.0530   -0.8062 H   0  0  0  0  0  0  0  0  0  0  0  0
   -1.8524   -1.4272   -0.9964 H   0  0  0  0  0  0  0  0  0  0  0  0
   -1.3454   -2.1887    0.6448 H   0  0  0  0  0  0  0  0  0  0  0  0
   -1.7417    0.0568    1.7308 H   0  0  0  0  0  0  0  0  0  0  0  0
   -3.2130   -0.1093    0.5730 H   0  0  0  0  0  0  0  0  0  0  0  0
   -1.6422    0.6592   -1.3258 H   0  0  0  0  0  0  0  0  0  0  0  0
    0.8281    1.9607   -1.2597 H   0  0  0  0  0  0  0  0  0  0  0  0
    1.2269    2.3176    0.4839 H   0  0  0  0  0  0  0  0  0  0  0  0
  1  2  1  0
  2  3  1  0
  3  4  2  0
  4  5  1  0
  5  6  1  0
  6  7  1  0
  7  8  1  0
  8  9  1  0
  9  3  1  0
  7  4  1  0
  1 10  1  0
  2 11  1  0
  2 12  1  0
  5 13  1  0
  5 14  1  0
  6 15  1  0
  6 16  1  0
  7 17  1  0
  9 18  1  0
  9 19  1  0
M  END
