
     RDKit          3D

 17 19  0  0  0  0  0  0  0  0999 V2000
    2.1620   -1.3255    0.1330 O   0  0  0  0  0  0  0  0  0  0  0  0
    2.0180    0.0131   -0.2625 C   0  0  0  0  0  0  0  0  0  0  0  0
    0.5699    0.3186   -0.2788 C   0  0  0  0  0  0  0  0  0  0  0  0
    0.3099    1.7219   -0.6863 O   0  0  0  0  0  0  0  0  0  0  0  0
   -0.3672    0.5058   -1.2086 C   0  0  0  0  0  0  0  0  0  0  0  0
   -1.5093    0.1652   -0.2617 C   0  0  0  0  0  0  0  0  0  0  0  0
   -2.3026    1.2060    0.1677 O   0  0  0  0  0  0  0  0  0  0  0  0
   -1.4734   -1.1476    0.3844 C   0  0  0  0  0  0  0  0  0  0  0  0
   -0.3717   -0.2262    0.7442 C   0  0  0  0  0  0  0  0  0  0  0  0
    2.0534   -1.3287    1.1235 H   0  0  0  0  0  0  0  0  0  0  0  0
    2.5073    0.0779   -1.2592 H   0  0  0  0  0  0  0  0  0  0  0  0
    2.5617    0.6108    0.5069 H   0  0  0  0  0  0  0  0  0  0  0  0
   -0.5131    0.5737   -2.2717 H   0  0  0  0  0  0  0  0  0  0  0  0
   -1.7159    1.9338    0.5404 H   0  0  0  0  0  0  0  0  0  0  0  0
   -1.3041   -2.0279   -0.2663 H   0  0  0  0  0  0  0  0  0  0  0  0
   -2.2207   -1.3399    1.1759 H   0  0  0  0  0  0  0  0  0  0  0  0
   -0.4043    0.2690    1.7192 H   0  0  0  0  0  0  0  0  0  0  0  0
  1  2  1  0
  2  3  1  0
  3  4  1  0
  4  5  1  0
  5  6  1  0
  6  7  1  0
  6  8  1  0
  8  9  1  0
  5  3  1  0
  9  6  1  0
  9  3  1  0
  1 10  1  0
  2 11  1  0
  2 12  1  0
  5 13  1  0
  7 14  1  0
  8 15  1  0
  8 16  1  0
  9 17  1  0
M  END
