
     RDKit          3D

 18 18  0  0  0  0  0  0  0  0999 V2000
    2.8644   -0.4405    0.0008 O   0  0  0  0  0  0  0  0  0  0  0  0
    2.0538    0.6954    0.0639 C   0  0  0  0  0  0  0  0  0  0  0  0
    0.6709    0.2710   -0.3454 C   0  0  0  0  0  0  0  0  0  0  0  0
    0.2515   -0.8449    0.5425 C   0  0  0  0  0  0  0  0  0  0  0  0
   -1.0196   -1.0239    0.8111 C   0  0  0  0  0  0  0  0  0  0  0  0
   -2.0347   -0.1204    0.2344 C   0  0  0  0  0  0  0  0  0  0  0  0
   -1.4371    0.7437   -0.8359 C   0  0  0  0  0  0  0  0  0  0  0  0
   -0.2472    1.3167   -0.3266 O   0  0  0  0  0  0  0  0  0  0  0  0
    2.4937   -1.0690   -0.6589 H   0  0  0  0  0  0  0  0  0  0  0  0
    2.0613    1.0194    1.1250 H   0  0  0  0  0  0  0  0  0  0  0  0
    2.4693    1.4894   -0.6002 H   0  0  0  0  0  0  0  0  0  0  0  0
    0.7020   -0.0955   -1.3980 H   0  0  0  0  0  0  0  0  0  0  0  0
    1.0082   -1.5255    0.9782 H   0  0  0  0  0  0  0  0  0  0  0  0
   -1.2736   -1.8634    1.4722 H   0  0  0  0  0  0  0  0  0  0  0  0
   -2.4026    0.5291    1.0505 H   0  0  0  0  0  0  0  0  0  0  0  0
   -2.8568   -0.7199   -0.2195 H   0  0  0  0  0  0  0  0  0  0  0  0
   -2.1471    1.5235   -1.1580 H   0  0  0  0  0  0  0  0  0  0  0  0
   -1.1567    0.1149   -1.6902 H   0  0  0  0  0  0  0  0  0  0  0  0
  1  2  1  0
  2  3  1  0
  3  4  1  0
  4  5  2  0
  5  6  1  0
  6  7  1  0
  7  8  1  0
  8  3  1  0
  1  9  1  0
  2 10  1  0
  2 11  1  0
  3 12  1  0
  4 13  1  0
  5 14  1  0
  6 15  1  0
  6 16  1  0
  7 17  1  0
  7 18  1  0
M  END
