
     RDKit          3D

 19 20  0  0  0  0  0  0  0  0999 V2000
   -1.4950   -0.1686    1.7195 O   0  0  0  0  0  0  0  0  0  0  0  0
   -1.9888   -0.2406    0.4299 C   0  0  0  0  0  0  0  0  0  0  0  0
   -0.8600   -0.3236   -0.5498 C   0  0  0  0  0  0  0  0  0  0  0  0
   -0.0464   -1.4292   -0.3648 O   0  0  0  0  0  0  0  0  0  0  0  0
    1.2795   -1.0086   -0.3905 C   0  0  0  0  0  0  0  0  0  0  0  0
    1.5192   -0.2922    0.8913 C   0  0  0  0  0  0  0  0  0  0  0  0
    0.7487    0.7900    0.8470 C   0  0  0  0  0  0  0  0  0  0  0  0
    0.0800    0.8339   -0.5023 C   0  0  0  0  0  0  0  0  0  0  0  0
    1.2224    0.2145   -1.3323 C   0  0  0  0  0  0  0  0  0  0  0  0
   -1.5987    0.7671    2.0869 H   0  0  0  0  0  0  0  0  0  0  0  0
   -2.6637   -1.0902    0.2683 H   0  0  0  0  0  0  0  0  0  0  0  0
   -2.5566    0.6808    0.2173 H   0  0  0  0  0  0  0  0  0  0  0  0
   -1.2652   -0.3881   -1.5914 H   0  0  0  0  0  0  0  0  0  0  0  0
    2.0037   -1.7337   -0.6727 H   0  0  0  0  0  0  0  0  0  0  0  0
    2.1917   -0.6256    1.6656 H   0  0  0  0  0  0  0  0  0  0  0  0
    0.6541    1.4846    1.6642 H   0  0  0  0  0  0  0  0  0  0  0  0
   -0.2476    1.7806   -0.8286 H   0  0  0  0  0  0  0  0  0  0  0  0
    0.8918   -0.0641   -2.3308 H   0  0  0  0  0  0  0  0  0  0  0  0
    2.1308    0.8131   -1.2698 H   0  0  0  0  0  0  0  0  0  0  0  0
  1  2  1  0
  2  3  1  0
  3  4  1  0
  4  5  1  0
  5  6  1  0
  6  7  2  0
  7  8  1  0
  8  9  1  0
  8  3  1  0
  9  5  1  0
  1 10  1  0
  2 11  1  0
  2 12  1  0
  3 13  1  0
  5 14  1  0
  6 15  1  0
  7 16  1  0
  8 17  1  0
  9 18  1  0
  9 19  1  0
M  END
