
     RDKit          3D

 19 20  0  0  0  0  0  0  0  0999 V2000
    2.6444   -0.7671   -0.7131 O   0  0  0  0  0  0  0  0  0  0  0  0
    1.9767    0.3860   -0.3024 C   0  0  0  0  0  0  0  0  0  0  0  0
    0.4901    0.2580   -0.5435 C   0  0  0  0  0  0  0  0  0  0  0  0
   -0.0835   -0.9090    0.2181 C   0  0  0  0  0  0  0  0  0  0  0  0
   -1.4893   -1.1507   -0.2627 C   0  0  0  0  0  0  0  0  0  0  0  0
   -2.1467    0.0241   -0.5928 O   0  0  0  0  0  0  0  0  0  0  0  0
   -1.7583    1.0022    0.2967 C   0  0  0  0  0  0  0  0  0  0  0  0
   -0.2729    0.9863    0.5378 C   0  0  0  0  0  0  0  0  0  0  0  0
   -0.0253   -0.1381    1.3614 O   0  0  0  0  0  0  0  0  0  0  0  0
    2.9959   -1.2502    0.0712 H   0  0  0  0  0  0  0  0  0  0  0  0
    2.1914    0.5960    0.7633 H   0  0  0  0  0  0  0  0  0  0  0  0
    2.4194    1.2215   -0.8826 H   0  0  0  0  0  0  0  0  0  0  0  0
    0.1472    0.4076   -1.5612 H   0  0  0  0  0  0  0  0  0  0  0  0
    0.5386   -1.8066    0.1804 H   0  0  0  0  0  0  0  0  0  0  0  0
   -1.3978   -1.7406   -1.2150 H   0  0  0  0  0  0  0  0  0  0  0  0
   -2.0299   -1.7839    0.4443 H   0  0  0  0  0  0  0  0  0  0  0  0
   -2.2380    0.7409    1.2857 H   0  0  0  0  0  0  0  0  0  0  0  0
   -2.1505    2.0080    0.0398 H   0  0  0  0  0  0  0  0  0  0  0  0
    0.1882    1.9158    0.8746 H   0  0  0  0  0  0  0  0  0  0  0  0
  1  2  1  0
  2  3  1  0
  3  4  1  0
  4  5  1  0
  5  6  1  0
  6  7  1  0
  7  8  1  0
  8  9  1  0
  8  3  1  0
  9  4  1  0
  1 10  1  0
  2 11  1  0
  2 12  1  0
  3 13  1  0
  4 14  1  0
  5 15  1  0
  5 16  1  0
  7 17  1  0
  7 18  1  0
  8 19  1  0
M  END
