
     RDKit          3D

 21 22  0  0  0  0  0  0  0  0999 V2000
    2.4575    1.0024   -0.3451 O   0  0  0  0  0  0  0  0  0  0  0  0
    2.0040   -0.2242    0.0284 C   0  0  0  0  0  0  0  0  0  0  0  0
    0.5580   -0.4318    0.0895 C   0  0  0  0  0  0  0  0  0  0  0  0
    0.2364   -1.7302    0.4852 O   0  0  0  0  0  0  0  0  0  0  0  0
   -0.2688   -0.0635   -1.1226 C   0  0  0  0  0  0  0  0  0  0  0  0
   -1.5903   -0.6693   -0.7137 C   0  0  0  0  0  0  0  0  0  0  0  0
   -1.6688   -0.1389    0.7322 C   0  0  0  0  0  0  0  0  0  0  0  0
   -0.3089    0.5582    0.7845 C   0  0  0  0  0  0  0  0  0  0  0  0
   -0.3804    1.3191   -0.5274 C   0  0  0  0  0  0  0  0  0  0  0  0
    2.9794    1.4503    0.3477 H   0  0  0  0  0  0  0  0  0  0  0  0
    2.4362   -0.9757   -0.6934 H   0  0  0  0  0  0  0  0  0  0  0  0
    2.4482   -0.4873    1.0095 H   0  0  0  0  0  0  0  0  0  0  0  0
    0.1142   -1.8206    1.4488 H   0  0  0  0  0  0  0  0  0  0  0  0
    0.1139   -0.2037   -2.0921 H   0  0  0  0  0  0  0  0  0  0  0  0
   -1.4607   -1.7559   -0.6497 H   0  0  0  0  0  0  0  0  0  0  0  0
   -2.4367   -0.3267   -1.3086 H   0  0  0  0  0  0  0  0  0  0  0  0
   -2.4914    0.5784    0.7572 H   0  0  0  0  0  0  0  0  0  0  0  0
   -1.7409   -0.9528    1.4521 H   0  0  0  0  0  0  0  0  0  0  0  0
   -0.0173    1.0519    1.6632 H   0  0  0  0  0  0  0  0  0  0  0  0
   -1.3852    1.7893   -0.6094 H   0  0  0  0  0  0  0  0  0  0  0  0
    0.4013    2.0311   -0.7362 H   0  0  0  0  0  0  0  0  0  0  0  0
  1  2  1  0
  2  3  1  0
  3  4  1  0
  3  5  1  0
  5  6  1  0
  6  7  1  0
  7  8  1  0
  8  9  1  0
  8  3  1  0
  9  5  1  0
  1 10  1  0
  2 11  1  0
  2 12  1  0
  4 13  1  0
  5 14  1  0
  6 15  1  0
  6 16  1  0
  7 17  1  0
  7 18  1  0
  8 19  1  0
  9 20  1  0
  9 21  1  0
M  END
