
     RDKit          3D

 21 22  0  0  0  0  0  0  0  0999 V2000
    3.0390    0.4526   -1.3797 O   0  0  0  0  0  0  0  0  0  0  0  0
    2.5374    0.0087   -0.1846 C   0  0  0  0  0  0  0  0  0  0  0  0
    1.1410   -0.5292   -0.2705 C   0  0  0  0  0  0  0  0  0  0  0  0
    0.6071   -1.0192    1.0866 C   0  0  0  0  0  0  0  0  0  0  0  0
   -0.0054    0.1435    0.3726 C   0  0  0  0  0  0  0  0  0  0  0  0
   -1.3861   -0.0880   -0.1766 C   0  0  0  0  0  0  0  0  0  0  0  0
   -1.8218   -1.4116   -0.1689 O   0  0  0  0  0  0  0  0  0  0  0  0
   -2.4570    0.9092    0.1309 C   0  0  0  0  0  0  0  0  0  0  0  0
   -1.9026    0.7671   -1.2882 C   0  0  0  0  0  0  0  0  0  0  0  0
    3.7782    1.0835   -1.1886 H   0  0  0  0  0  0  0  0  0  0  0  0
    3.1978   -0.8391    0.1543 H   0  0  0  0  0  0  0  0  0  0  0  0
    2.6472    0.8089    0.5668 H   0  0  0  0  0  0  0  0  0  0  0  0
    0.9231   -1.1506   -1.1604 H   0  0  0  0  0  0  0  0  0  0  0  0
    1.2039   -0.8567    1.9821 H   0  0  0  0  0  0  0  0  0  0  0  0
    0.1171   -2.0139    1.0489 H   0  0  0  0  0  0  0  0  0  0  0  0
    0.1090    1.1099    0.9036 H   0  0  0  0  0  0  0  0  0  0  0  0
   -2.1509   -1.6909    0.7245 H   0  0  0  0  0  0  0  0  0  0  0  0
   -3.4873    0.5565    0.3212 H   0  0  0  0  0  0  0  0  0  0  0  0
   -2.2301    1.8726    0.6054 H   0  0  0  0  0  0  0  0  0  0  0  0
   -2.5905    0.2893   -2.0111 H   0  0  0  0  0  0  0  0  0  0  0  0
   -1.2692    1.5974   -1.6772 H   0  0  0  0  0  0  0  0  0  0  0  0
  1  2  1  0
  2  3  1  0
  3  4  1  0
  4  5  1  0
  5  6  1  0
  6  7  1  0
  6  8  1  0
  8  9  1  0
  5  3  1  0
  9  6  1  0
  1 10  1  0
  2 11  1  0
  2 12  1  0
  3 13  1  0
  4 14  1  0
  4 15  1  0
  5 16  1  0
  7 17  1  0
  8 18  1  0
  8 19  1  0
  9 20  1  0
  9 21  1  0
M  END
