
     RDKit          3D

 21 22  0  0  0  0  0  0  0  0999 V2000
    3.1801    0.3303    0.5756 O   0  0  0  0  0  0  0  0  0  0  0  0
    2.3767   -0.6210   -0.0546 C   0  0  0  0  0  0  0  0  0  0  0  0
    0.9368   -0.2043    0.0225 C   0  0  0  0  0  0  0  0  0  0  0  0
    0.6261    0.9288    0.6326 C   0  0  0  0  0  0  0  0  0  0  0  0
   -0.7814    1.3460    0.7143 C   0  0  0  0  0  0  0  0  0  0  0  0
   -1.6846    0.8419   -0.3430 C   0  0  0  0  0  0  0  0  0  0  0  0
   -2.4840   -0.4065   -0.1609 C   0  0  0  0  0  0  0  0  0  0  0  0
   -1.2768   -0.3427   -1.0889 C   0  0  0  0  0  0  0  0  0  0  0  0
   -0.0739   -1.0724   -0.5876 C   0  0  0  0  0  0  0  0  0  0  0  0
    4.1196    0.1917    0.3541 H   0  0  0  0  0  0  0  0  0  0  0  0
    2.5193   -1.6340    0.3834 H   0  0  0  0  0  0  0  0  0  0  0  0
    2.6386   -0.6825   -1.1293 H   0  0  0  0  0  0  0  0  0  0  0  0
    1.4362    1.5466    1.0723 H   0  0  0  0  0  0  0  0  0  0  0  0
   -1.2281    1.0775    1.7184 H   0  0  0  0  0  0  0  0  0  0  0  0
   -0.7712    2.4770    0.7401 H   0  0  0  0  0  0  0  0  0  0  0  0
   -2.2211    1.6314   -0.9309 H   0  0  0  0  0  0  0  0  0  0  0  0
   -3.4771   -0.5002   -0.6445 H   0  0  0  0  0  0  0  0  0  0  0  0
   -2.4044   -1.0018    0.7666 H   0  0  0  0  0  0  0  0  0  0  0  0
   -1.4527   -0.4031   -2.1837 H   0  0  0  0  0  0  0  0  0  0  0  0
    0.4205   -1.6686   -1.4106 H   0  0  0  0  0  0  0  0  0  0  0  0
   -0.3987   -1.8341    0.1488 H   0  0  0  0  0  0  0  0  0  0  0  0
  1  2  1  0
  2  3  1  0
  3  4  2  0
  4  5  1  0
  5  6  1  0
  6  7  1  0
  7  8  1  0
  8  9  1  0
  9  3  1  0
  8  6  1  0
  1 10  1  0
  2 11  1  0
  2 12  1  0
  4 13  1  0
  5 14  1  0
  5 15  1  0
  6 16  1  0
  7 17  1  0
  7 18  1  0
  8 19  1  0
  9 20  1  0
  9 21  1  0
M  END
