
     RDKit          3D

 19 21  0  0  0  0  0  0  0  0999 V2000
    3.2442    0.9265   -0.5340 O   0  0  0  0  0  0  0  0  0  0  0  0
    2.5823   -0.2704   -0.2118 C   0  0  0  0  0  0  0  0  0  0  0  0
    1.2573    0.1033    0.3948 C   0  0  0  0  0  0  0  0  0  0  0  0
    0.3438   -0.9819    0.8315 C   0  0  0  0  0  0  0  0  0  0  0  0
   -0.8279   -0.5738    1.4871 O   0  0  0  0  0  0  0  0  0  0  0  0
   -1.2581   -0.0347    0.3166 C   0  0  0  0  0  0  0  0  0  0  0  0
   -2.5939   -0.3548   -0.1818 C   0  0  0  0  0  0  0  0  0  0  0  0
   -2.1697    1.0793    0.1633 C   0  0  0  0  0  0  0  0  0  0  0  0
    0.0109   -0.2332   -0.3968 C   0  0  0  0  0  0  0  0  0  0  0  0
    2.7326    1.7213   -0.2599 H   0  0  0  0  0  0  0  0  0  0  0  0
    2.4138   -0.8014   -1.1707 H   0  0  0  0  0  0  0  0  0  0  0  0
    3.2408   -0.8257    0.4842 H   0  0  0  0  0  0  0  0  0  0  0  0
    1.1582    1.0601    0.9608 H   0  0  0  0  0  0  0  0  0  0  0  0
    0.5714   -2.0405    0.7253 H   0  0  0  0  0  0  0  0  0  0  0  0
   -3.3058   -0.7957    0.5653 H   0  0  0  0  0  0  0  0  0  0  0  0
   -2.8279   -0.6045   -1.2178 H   0  0  0  0  0  0  0  0  0  0  0  0
   -2.0437    1.7314   -0.7475 H   0  0  0  0  0  0  0  0  0  0  0  0
   -2.6146    1.5416    1.0654 H   0  0  0  0  0  0  0  0  0  0  0  0
    0.0863   -0.6470   -1.4036 H   0  0  0  0  0  0  0  0  0  0  0  0
  1  2  1  0
  2  3  1  0
  3  4  1  0
  4  5  1  0
  5  6  1  0
  6  7  1  0
  7  8  1  0
  6  9  1  0
  9  3  1  0
  9  4  1  0
  8  6  1  0
  1 10  1  0
  2 11  1  0
  2 12  1  0
  3 13  1  0
  4 14  1  0
  7 15  1  0
  7 16  1  0
  8 17  1  0
  8 18  1  0
  9 19  1  0
M  END
