
     RDKit          3D

 19 20  0  0  0  0  0  0  0  0999 V2000
    2.5370   -0.7324    0.9544 O   0  0  0  0  0  0  0  0  0  0  0  0
    2.0114   -0.3413   -0.2571 C   0  0  0  0  0  0  0  0  0  0  0  0
    0.6070    0.1436   -0.1593 C   0  0  0  0  0  0  0  0  0  0  0  0
    0.1208    1.3446   -0.4789 C   0  0  0  0  0  0  0  0  0  0  0  0
   -1.3807    1.2905   -0.1849 C   0  0  0  0  0  0  0  0  0  0  0  0
   -1.5471   -0.1132   -0.6991 C   0  0  0  0  0  0  0  0  0  0  0  0
   -1.5385   -1.3975   -0.1480 C   0  0  0  0  0  0  0  0  0  0  0  0
   -0.5038   -0.6115    0.3573 C   0  0  0  0  0  0  0  0  0  0  0  0
   -0.7375   -0.1668    1.6968 O   0  0  0  0  0  0  0  0  0  0  0  0
    3.2145   -0.1179    1.3193 H   0  0  0  0  0  0  0  0  0  0  0  0
    2.6957    0.4230   -0.6904 H   0  0  0  0  0  0  0  0  0  0  0  0
    2.0298   -1.1916   -0.9895 H   0  0  0  0  0  0  0  0  0  0  0  0
    0.6734    2.1896   -0.8679 H   0  0  0  0  0  0  0  0  0  0  0  0
   -1.5822    1.4222    0.8760 H   0  0  0  0  0  0  0  0  0  0  0  0
   -1.8803    2.0202   -0.8515 H   0  0  0  0  0  0  0  0  0  0  0  0
   -1.1973   -0.0835   -1.7814 H   0  0  0  0  0  0  0  0  0  0  0  0
   -1.2395   -2.2940   -0.7724 H   0  0  0  0  0  0  0  0  0  0  0  0
   -2.3943   -1.7159    0.4934 H   0  0  0  0  0  0  0  0  0  0  0  0
    0.1113   -0.0680    2.1830 H   0  0  0  0  0  0  0  0  0  0  0  0
  1  2  1  0
  2  3  1  0
  3  4  2  0
  4  5  1  0
  5  6  1  0
  6  7  1  0
  7  8  1  0
  8  9  1  0
  8  3  1  0
  8  6  1  0
  1 10  1  0
  2 11  1  0
  2 12  1  0
  4 13  1  0
  5 14  1  0
  5 15  1  0
  6 16  1  0
  7 17  1  0
  7 18  1  0
  9 19  1  0
M  END
