
     RDKit          3D

 16 17  0  0  0  0  0  0  0  0999 V2000
   -1.8813    1.3779   -0.6485 O   0  0  0  0  0  0  0  0  0  0  0  0
   -1.7324    0.2329    0.1465 C   0  0  0  0  0  0  0  0  0  0  0  0
   -0.4900   -0.4886   -0.2655 C   0  0  0  0  0  0  0  0  0  0  0  0
   -0.2946   -1.6533    0.5083 O   0  0  0  0  0  0  0  0  0  0  0  0
    1.0972   -1.4237    0.4202 C   0  0  0  0  0  0  0  0  0  0  0  0
    0.8024    0.0161    0.2274 C   0  0  0  0  0  0  0  0  0  0  0  0
    1.5797    1.0868   -0.0629 C   0  0  0  0  0  0  0  0  0  0  0  0
    0.9320    0.9474    1.2179 O   0  0  0  0  0  0  0  0  0  0  0  0
   -2.3723    1.1485   -1.4938 H   0  0  0  0  0  0  0  0  0  0  0  0
   -1.7152    0.4986    1.2227 H   0  0  0  0  0  0  0  0  0  0  0  0
   -2.6012   -0.4249   -0.0608 H   0  0  0  0  0  0  0  0  0  0  0  0
   -0.4904   -0.7000   -1.3477 H   0  0  0  0  0  0  0  0  0  0  0  0
    1.6652   -1.7176    1.3083 H   0  0  0  0  0  0  0  0  0  0  0  0
    1.5415   -1.9064   -0.4861 H   0  0  0  0  0  0  0  0  0  0  0  0
    1.2508    1.9592   -0.6734 H   0  0  0  0  0  0  0  0  0  0  0  0
    2.7087    1.0471   -0.0125 H   0  0  0  0  0  0  0  0  0  0  0  0
  1  2  1  0
  2  3  1  0
  3  4  1  0
  4  5  1  0
  5  6  1  0
  6  7  1  0
  7  8  1  0
  6  3  1  0
  8  6  1  0
  1  9  1  0
  2 10  1  0
  2 11  1  0
  3 12  1  0
  5 13  1  0
  5 14  1  0
  7 15  1  0
  7 16  1  0
M  END
