
     RDKit          3D

 21 22  0  0  0  0  0  0  0  0999 V2000
    3.4346   -0.2355   -0.8503 O   0  0  0  0  0  0  0  0  0  0  0  0
    2.4143    0.5423   -0.2687 C   0  0  0  0  0  0  0  0  0  0  0  0
    1.0553    0.0605   -0.7182 C   0  0  0  0  0  0  0  0  0  0  0  0
   -0.1234    0.7837   -0.1879 C   0  0  0  0  0  0  0  0  0  0  0  0
   -1.4747    0.6313   -0.8611 C   0  0  0  0  0  0  0  0  0  0  0  0
   -2.0950   -0.4797   -0.0220 C   0  0  0  0  0  0  0  0  0  0  0  0
   -2.3608    0.0232    1.2461 O   0  0  0  0  0  0  0  0  0  0  0  0
   -0.9223   -1.4654    0.0291 C   0  0  0  0  0  0  0  0  0  0  0  0
    0.2199   -0.5472    0.3542 C   0  0  0  0  0  0  0  0  0  0  0  0
    4.2738    0.2934   -0.8435 H   0  0  0  0  0  0  0  0  0  0  0  0
    2.5124    0.5033    0.8398 H   0  0  0  0  0  0  0  0  0  0  0  0
    2.6027    1.5855   -0.6066 H   0  0  0  0  0  0  0  0  0  0  0  0
    1.0450   -0.3499   -1.7523 H   0  0  0  0  0  0  0  0  0  0  0  0
   -0.0056    1.7094    0.4092 H   0  0  0  0  0  0  0  0  0  0  0  0
   -2.0714    1.5341   -0.7706 H   0  0  0  0  0  0  0  0  0  0  0  0
   -1.3621    0.2610   -1.9050 H   0  0  0  0  0  0  0  0  0  0  0  0
   -2.9656   -0.9123   -0.5234 H   0  0  0  0  0  0  0  0  0  0  0  0
   -2.9662    0.8108    1.1175 H   0  0  0  0  0  0  0  0  0  0  0  0
   -1.0552   -2.2224    0.8134 H   0  0  0  0  0  0  0  0  0  0  0  0
   -0.7833   -1.8793   -0.9859 H   0  0  0  0  0  0  0  0  0  0  0  0
    0.6278   -0.6469    1.3817 H   0  0  0  0  0  0  0  0  0  0  0  0
  1  2  1  0
  2  3  1  0
  3  4  1  0
  4  5  1  0
  5  6  1  0
  6  7  1  0
  6  8  1  0
  8  9  1  0
  9  3  1  0
  9  4  1  0
  1 10  1  0
  2 11  1  0
  2 12  1  0
  3 13  1  0
  4 14  1  0
  5 15  1  0
  5 16  1  0
  6 17  1  0
  7 18  1  0
  8 19  1  0
  8 20  1  0
  9 21  1  0
M  END
