
     RDKit          3D

 17 18  0  0  0  0  0  0  0  0999 V2000
    2.2423   -1.2496    0.1795 O   0  0  0  0  0  0  0  0  0  0  0  0
    1.5249   -0.1891   -0.3815 C   0  0  0  0  0  0  0  0  0  0  0  0
    0.3164    0.1655    0.4881 C   0  0  0  0  0  0  0  0  0  0  0  0
    0.6973    0.5390    1.7506 O   0  0  0  0  0  0  0  0  0  0  0  0
   -0.3819    1.2835   -0.1959 C   0  0  0  0  0  0  0  0  0  0  0  0
   -1.5413    0.8818   -0.6970 C   0  0  0  0  0  0  0  0  0  0  0  0
   -1.7876   -0.5369   -0.4287 C   0  0  0  0  0  0  0  0  0  0  0  0
   -0.8893   -1.5151   -0.7808 O   0  0  0  0  0  0  0  0  0  0  0  0
   -0.6442   -0.9927    0.4733 C   0  0  0  0  0  0  0  0  0  0  0  0
    3.0585   -1.3459   -0.3738 H   0  0  0  0  0  0  0  0  0  0  0  0
    1.1880   -0.3982   -1.4071 H   0  0  0  0  0  0  0  0  0  0  0  0
    2.1645    0.7325   -0.3982 H   0  0  0  0  0  0  0  0  0  0  0  0
    0.0291    1.1849    2.1046 H   0  0  0  0  0  0  0  0  0  0  0  0
    0.0188    2.2852   -0.2652 H   0  0  0  0  0  0  0  0  0  0  0  0
   -2.2084    1.5411   -1.2355 H   0  0  0  0  0  0  0  0  0  0  0  0
   -2.8084   -0.9101   -0.2180 H   0  0  0  0  0  0  0  0  0  0  0  0
   -0.9787   -1.4759    1.3854 H   0  0  0  0  0  0  0  0  0  0  0  0
  1  2  1  0
  2  3  1  0
  3  4  1  0
  3  5  1  0
  5  6  2  0
  6  7  1  0
  7  8  1  0
  8  9  1  0
  9  3  1  0
  9  7  1  0
  1 10  1  0
  2 11  1  0
  2 12  1  0
  4 13  1  0
  5 14  1  0
  6 15  1  0
  7 16  1  0
  9 17  1  0
M  END
