
     RDKit          3D

 19 20  0  0  0  0  0  0  0  0999 V2000
    2.9254   -0.0839   -0.8590 O   0  0  0  0  0  0  0  0  0  0  0  0
    2.2248    0.4548    0.2135 C   0  0  0  0  0  0  0  0  0  0  0  0
    0.7547    0.2388    0.0137 C   0  0  0  0  0  0  0  0  0  0  0  0
   -0.0595    1.2733   -0.0545 C   0  0  0  0  0  0  0  0  0  0  0  0
   -1.5227    1.1510   -0.2498 C   0  0  0  0  0  0  0  0  0  0  0  0
   -1.8949    0.3058   -1.2941 O   0  0  0  0  0  0  0  0  0  0  0  0
   -2.1049   -0.1247    0.0021 C   0  0  0  0  0  0  0  0  0  0  0  0
   -1.1530   -1.1354    0.6031 C   0  0  0  0  0  0  0  0  0  0  0  0
    0.1807   -1.1279   -0.1117 C   0  0  0  0  0  0  0  0  0  0  0  0
    2.2938   -0.2727   -1.5902 H   0  0  0  0  0  0  0  0  0  0  0  0
    2.4575    1.5132    0.4103 H   0  0  0  0  0  0  0  0  0  0  0  0
    2.4922   -0.1388    1.1294 H   0  0  0  0  0  0  0  0  0  0  0  0
    0.3774    2.2834    0.0395 H   0  0  0  0  0  0  0  0  0  0  0  0
   -2.1234    2.0654   -0.0693 H   0  0  0  0  0  0  0  0  0  0  0  0
   -3.1391   -0.2119    0.3551 H   0  0  0  0  0  0  0  0  0  0  0  0
   -0.9587   -0.7995    1.6467 H   0  0  0  0  0  0  0  0  0  0  0  0
   -1.5949   -2.1528    0.6617 H   0  0  0  0  0  0  0  0  0  0  0  0
    0.8281   -1.8832    0.3373 H   0  0  0  0  0  0  0  0  0  0  0  0
    0.0165   -1.3549   -1.1839 H   0  0  0  0  0  0  0  0  0  0  0  0
  1  2  1  0
  2  3  1  0
  3  4  2  0
  4  5  1  0
  5  6  1  0
  6  7  1  0
  7  8  1  0
  8  9  1  0
  9  3  1  0
  7  5  1  0
  1 10  1  0
  2 11  1  0
  2 12  1  0
  4 13  1  0
  5 14  1  0
  7 15  1  0
  8 16  1  0
  8 17  1  0
  9 18  1  0
  9 19  1  0
M  END
