
     RDKit          3D

 21 23  0  0  0  0  0  0  0  0999 V2000
   -3.4315    0.1855    0.4857 O   0  0  0  0  0  0  0  0  0  0  0  0
   -2.3969   -0.7605    0.6337 C   0  0  0  0  0  0  0  0  0  0  0  0
   -1.1502   -0.1556   -0.0164 C   0  0  0  0  0  0  0  0  0  0  0  0
    0.0663   -0.9606    0.0117 C   0  0  0  0  0  0  0  0  0  0  0  0
    1.3105   -0.5327   -0.6870 C   0  0  0  0  0  0  0  0  0  0  0  0
    2.1481   -0.0467    0.5098 C   0  0  0  0  0  0  0  0  0  0  0  0
    1.0897    1.0710    0.5128 C   0  0  0  0  0  0  0  0  0  0  0  0
    1.1768    0.9514   -0.9883 C   0  0  0  0  0  0  0  0  0  0  0  0
   -0.1313    0.3121    0.9152 C   0  0  0  0  0  0  0  0  0  0  0  0
   -3.1229    0.9964    0.0212 H   0  0  0  0  0  0  0  0  0  0  0  0
   -2.2301   -1.0407    1.6773 H   0  0  0  0  0  0  0  0  0  0  0  0
   -2.6883   -1.6142   -0.0230 H   0  0  0  0  0  0  0  0  0  0  0  0
   -1.3995    0.3454   -0.9747 H   0  0  0  0  0  0  0  0  0  0  0  0
    0.1748   -1.8969    0.6040 H   0  0  0  0  0  0  0  0  0  0  0  0
    1.7935   -1.1569   -1.3941 H   0  0  0  0  0  0  0  0  0  0  0  0
    2.1044   -0.6916    1.3855 H   0  0  0  0  0  0  0  0  0  0  0  0
    3.1304    0.2725    0.1406 H   0  0  0  0  0  0  0  0  0  0  0  0
    1.3517    1.9847    0.9855 H   0  0  0  0  0  0  0  0  0  0  0  0
    2.1325    1.3526   -1.3441 H   0  0  0  0  0  0  0  0  0  0  0  0
    0.3212    1.2591   -1.5713 H   0  0  0  0  0  0  0  0  0  0  0  0
   -0.2489    0.1257    1.9863 H   0  0  0  0  0  0  0  0  0  0  0  0
  1  2  1  0
  2  3  1  0
  3  4  1  0
  4  5  1  0
  5  6  1  0
  6  7  1  0
  7  8  1  0
  7  9  1  0
  9  3  1  0
  9  4  1  0
  8  5  1  0
  1 10  1  0
  2 11  1  0
  2 12  1  0
  3 13  1  0
  4 14  1  0
  5 15  1  0
  6 16  1  0
  6 17  1  0
  7 18  1  0
  8 19  1  0
  8 20  1  0
  9 21  1  0
M  END
