
     RDKit          3D

 17 18  0  0  0  0  0  0  0  0999 V2000
    2.3909   -0.1079    0.6519 O   0  0  0  0  0  0  0  0  0  0  0  0
    1.4142   -0.8273   -0.0812 C   0  0  0  0  0  0  0  0  0  0  0  0
    0.1858   -0.2385   -0.0142 C   0  0  0  0  0  0  0  0  0  0  0  0
   -1.0963   -0.7127   -0.6646 C   0  0  0  0  0  0  0  0  0  0  0  0
   -1.4838    0.5872    0.0029 C   0  0  0  0  0  0  0  0  0  0  0  0
   -0.2043    1.1294   -0.5493 C   0  0  0  0  0  0  0  0  0  0  0  0
   -0.6503    0.0983    1.1667 C   0  0  0  0  0  0  0  0  0  0  0  0
    2.3936    0.8139    0.2834 H   0  0  0  0  0  0  0  0  0  0  0  0
    1.8574   -0.9060   -1.1069 H   0  0  0  0  0  0  0  0  0  0  0  0
    1.4641   -1.8596    0.3262 H   0  0  0  0  0  0  0  0  0  0  0  0
   -1.1421   -0.6330   -1.7513 H   0  0  0  0  0  0  0  0  0  0  0  0
   -1.4524   -1.6297   -0.1935 H   0  0  0  0  0  0  0  0  0  0  0  0
   -2.3878    1.0057    0.0386 H   0  0  0  0  0  0  0  0  0  0  0  0
    0.2707    1.9473    0.0299 H   0  0  0  0  0  0  0  0  0  0  0  0
   -0.1828    1.2294   -1.6469 H   0  0  0  0  0  0  0  0  0  0  0  0
   -1.0932   -0.7867    1.6611 H   0  0  0  0  0  0  0  0  0  0  0  0
   -0.2838    0.8904    1.8472 H   0  0  0  0  0  0  0  0  0  0  0  0
  1  2  1  0
  2  3  1  0
  3  4  1  0
  4  5  1  0
  5  6  1  0
  5  7  1  0
  6  3  1  0
  7  3  1  0
  1  8  1  0
  2  9  1  0
  2 10  1  0
  4 11  1  0
  4 12  1  0
  5 13  1  0
  6 14  1  0
  6 15  1  0
  7 16  1  0
  7 17  1  0
M  END
