
     RDKit          3D

 19 21  0  0  0  0  0  0  0  0999 V2000
    2.7959    0.3196    0.3298 O   0  0  0  0  0  0  0  0  0  0  0  0
    1.7618    0.9389   -0.4102 C   0  0  0  0  0  0  0  0  0  0  0  0
    0.4960    0.2556   -0.0553 C   0  0  0  0  0  0  0  0  0  0  0  0
    0.3225   -1.2122   -0.3017 C   0  0  0  0  0  0  0  0  0  0  0  0
   -1.1484   -0.9404   -0.5399 C   0  0  0  0  0  0  0  0  0  0  0  0
   -1.8463   -0.8191    0.7682 C   0  0  0  0  0  0  0  0  0  0  0  0
   -1.5542    0.3316    1.3656 C   0  0  0  0  0  0  0  0  0  0  0  0
   -0.6068    1.0905    0.4711 C   0  0  0  0  0  0  0  0  0  0  0  0
   -0.7776    0.4827   -0.8200 C   0  0  0  0  0  0  0  0  0  0  0  0
    2.5456   -0.6353    0.4144 H   0  0  0  0  0  0  0  0  0  0  0  0
    1.7565    1.9916   -0.0784 H   0  0  0  0  0  0  0  0  0  0  0  0
    2.0613    0.8514   -1.4726 H   0  0  0  0  0  0  0  0  0  0  0  0
    0.5582   -1.8780    0.5349 H   0  0  0  0  0  0  0  0  0  0  0  0
    0.7930   -1.4851   -1.2868 H   0  0  0  0  0  0  0  0  0  0  0  0
   -1.6361   -1.5117   -1.3123 H   0  0  0  0  0  0  0  0  0  0  0  0
   -2.5208   -1.5382    1.2358 H   0  0  0  0  0  0  0  0  0  0  0  0
   -1.8959    0.7179    2.3169 H   0  0  0  0  0  0  0  0  0  0  0  0
   -0.4203    2.1381    0.6391 H   0  0  0  0  0  0  0  0  0  0  0  0
   -0.6843    0.9022   -1.7987 H   0  0  0  0  0  0  0  0  0  0  0  0
  1  2  1  0
  2  3  1  0
  3  4  1  0
  4  5  1  0
  5  6  1  0
  6  7  2  0
  7  8  1  0
  8  9  1  0
  8  3  1  0
  9  3  1  0
  9  5  1  0
  1 10  1  0
  2 11  1  0
  2 12  1  0
  4 13  1  0
  4 14  1  0
  5 15  1  0
  6 16  1  0
  7 17  1  0
  8 18  1  0
  9 19  1  0
M  END
