
     RDKit          3D

 16 17  0  0  0  0  0  0  0  0999 V2000
    2.6387    0.6921    0.2345 O   0  0  0  0  0  0  0  0  0  0  0  0
    1.4878    0.4860    1.0167 C   0  0  0  0  0  0  0  0  0  0  0  0
    0.3198    0.1062    0.1529 C   0  0  0  0  0  0  0  0  0  0  0  0
   -0.7732    1.0776   -0.0084 C   0  0  0  0  0  0  0  0  0  0  0  0
   -1.9754    0.4562   -0.0899 O   0  0  0  0  0  0  0  0  0  0  0  0
   -1.8451   -0.8819    0.1220 C   0  0  0  0  0  0  0  0  0  0  0  0
   -0.4216   -1.1948    0.4582 C   0  0  0  0  0  0  0  0  0  0  0  0
    0.4678   -1.0305   -0.5806 O   0  0  0  0  0  0  0  0  0  0  0  0
    3.3299    0.0209    0.5241 H   0  0  0  0  0  0  0  0  0  0  0  0
    1.2703    1.4198    1.5982 H   0  0  0  0  0  0  0  0  0  0  0  0
    1.6502   -0.3497    1.7279 H   0  0  0  0  0  0  0  0  0  0  0  0
   -0.5967    1.7835   -0.8628 H   0  0  0  0  0  0  0  0  0  0  0  0
   -0.7900    1.7519    0.8981 H   0  0  0  0  0  0  0  0  0  0  0  0
   -2.0707   -1.4012   -0.8562 H   0  0  0  0  0  0  0  0  0  0  0  0
   -2.5570   -1.2952    0.8639 H   0  0  0  0  0  0  0  0  0  0  0  0
   -0.1348   -1.6409    1.4064 H   0  0  0  0  0  0  0  0  0  0  0  0
  1  2  1  0
  2  3  1  0
  3  4  1  0
  4  5  1  0
  5  6  1  0
  6  7  1  0
  7  8  1  0
  7  3  1  0
  8  3  1  0
  1  9  1  0
  2 10  1  0
  2 11  1  0
  4 12  1  0
  4 13  1  0
  6 14  1  0
  6 15  1  0
  7 16  1  0
M  END
