
     RDKit          3D

 23 23  0  0  0  0  0  0  0  0999 V2000
    1.2617   -2.0694    0.8441 O   0  0  0  0  0  0  0  0  0  0  0  0
    1.6220   -0.7896    0.4032 C   0  0  0  0  0  0  0  0  0  0  0  0
    0.3928    0.0575    0.1659 C   0  0  0  0  0  0  0  0  0  0  0  0
    0.8348    1.4188   -0.3052 C   0  0  0  0  0  0  0  0  0  0  0  0
    1.5676    1.3590   -1.4910 O   0  0  0  0  0  0  0  0  0  0  0  0
   -0.4594    0.2193    1.3862 C   0  0  0  0  0  0  0  0  0  0  0  0
   -1.8294    0.5251    0.7676 C   0  0  0  0  0  0  0  0  0  0  0  0
   -1.9002   -0.6161   -0.2525 C   0  0  0  0  0  0  0  0  0  0  0  0
   -0.5119   -0.6202   -0.8275 C   0  0  0  0  0  0  0  0  0  0  0  0
    1.8756   -2.7659    0.5059 H   0  0  0  0  0  0  0  0  0  0  0  0
    2.1390   -0.8761   -0.5817 H   0  0  0  0  0  0  0  0  0  0  0  0
    2.3280   -0.2951    1.0815 H   0  0  0  0  0  0  0  0  0  0  0  0
   -0.0147    2.1004   -0.4892 H   0  0  0  0  0  0  0  0  0  0  0  0
    1.5435    1.8144    0.4674 H   0  0  0  0  0  0  0  0  0  0  0  0
    1.8148    2.3057   -1.6978 H   0  0  0  0  0  0  0  0  0  0  0  0
   -0.1411    0.9918    2.0766 H   0  0  0  0  0  0  0  0  0  0  0  0
   -0.5847   -0.7884    1.8647 H   0  0  0  0  0  0  0  0  0  0  0  0
   -2.6304    0.3873    1.5048 H   0  0  0  0  0  0  0  0  0  0  0  0
   -1.8414    1.4749    0.2350 H   0  0  0  0  0  0  0  0  0  0  0  0
   -2.1102   -1.5285    0.3415 H   0  0  0  0  0  0  0  0  0  0  0  0
   -2.6819   -0.4342   -1.0109 H   0  0  0  0  0  0  0  0  0  0  0  0
   -0.2094   -1.6968   -0.9545 H   0  0  0  0  0  0  0  0  0  0  0  0
   -0.4653   -0.1739   -1.8410 H   0  0  0  0  0  0  0  0  0  0  0  0
  1  2  1  0
  2  3  1  0
  3  4  1  0
  4  5  1  0
  3  6  1  0
  6  7  1  0
  7  8  1  0
  8  9  1  0
  9  3  1  0
  1 10  1  0
  2 11  1  0
  2 12  1  0
  4 13  1  0
  4 14  1  0
  5 15  1  0
  6 16  1  0
  6 17  1  0
  7 18  1  0
  7 19  1  0
  8 20  1  0
  8 21  1  0
  9 22  1  0
  9 23  1  0
M  END
