
     RDKit          3D

 19 21  0  0  0  0  0  0  0  0999 V2000
    2.7792    1.0276   -0.1747 O   0  0  0  0  0  0  0  0  0  0  0  0
    2.1200   -0.2142   -0.1852 C   0  0  0  0  0  0  0  0  0  0  0  0
    0.6933   -0.0701    0.2236 C   0  0  0  0  0  0  0  0  0  0  0  0
   -0.2151   -1.1811   -0.2269 C   0  0  0  0  0  0  0  0  0  0  0  0
   -1.5687   -0.7027    0.1903 C   0  0  0  0  0  0  0  0  0  0  0  0
   -2.2504    0.2004   -0.8090 C   0  0  0  0  0  0  0  0  0  0  0  0
   -1.5133    0.7977    0.3076 C   0  0  0  0  0  0  0  0  0  0  0  0
   -0.0596    1.0970    0.2829 C   0  0  0  0  0  0  0  0  0  0  0  0
    0.5415    0.4544    1.5116 O   0  0  0  0  0  0  0  0  0  0  0  0
    3.7542    0.7962   -0.1111 H   0  0  0  0  0  0  0  0  0  0  0  0
    2.6315   -0.8179    0.6218 H   0  0  0  0  0  0  0  0  0  0  0  0
    2.2746   -0.6769   -1.1717 H   0  0  0  0  0  0  0  0  0  0  0  0
   -0.1368   -1.2132   -1.3534 H   0  0  0  0  0  0  0  0  0  0  0  0
    0.0633   -2.1697    0.1509 H   0  0  0  0  0  0  0  0  0  0  0  0
   -2.1564   -1.2396    0.9443 H   0  0  0  0  0  0  0  0  0  0  0  0
   -3.3473    0.1947   -0.7359 H   0  0  0  0  0  0  0  0  0  0  0  0
   -1.8207    0.2690   -1.8279 H   0  0  0  0  0  0  0  0  0  0  0  0
   -2.0908    1.3075    1.0988 H   0  0  0  0  0  0  0  0  0  0  0  0
    0.3015    2.1407    0.2177 H   0  0  0  0  0  0  0  0  0  0  0  0
  1  2  1  0
  2  3  1  0
  3  4  1  0
  4  5  1  0
  5  6  1  0
  6  7  1  0
  7  8  1  0
  8  9  1  0
  8  3  1  0
  9  3  1  0
  7  5  1  0
  1 10  1  0
  2 11  1  0
  2 12  1  0
  4 13  1  0
  4 14  1  0
  5 15  1  0
  6 16  1  0
  6 17  1  0
  7 18  1  0
  8 19  1  0
M  END
