
     RDKit          3D

 21 22  0  0  0  0  0  0  0  0999 V2000
    2.4354   -0.8491   -0.5154 O   0  0  0  0  0  0  0  0  0  0  0  0
    1.9429   -0.2485    0.6060 C   0  0  0  0  0  0  0  0  0  0  0  0
    0.6778    0.5245    0.4018 C   0  0  0  0  0  0  0  0  0  0  0  0
    0.7831    1.5511   -0.5033 O   0  0  0  0  0  0  0  0  0  0  0  0
   -0.5493    2.0269   -0.5402 C   0  0  0  0  0  0  0  0  0  0  0  0
   -1.3413    0.7465   -0.7747 C   0  0  0  0  0  0  0  0  0  0  0  0
   -0.4774   -0.2669   -0.0714 C   0  0  0  0  0  0  0  0  0  0  0  0
   -0.4718   -1.6810   -0.3829 C   0  0  0  0  0  0  0  0  0  0  0  0
   -1.1085   -1.2038    0.9057 C   0  0  0  0  0  0  0  0  0  0  0  0
    2.0154   -0.6151   -1.3557 H   0  0  0  0  0  0  0  0  0  0  0  0
    1.7390   -1.0040    1.4072 H   0  0  0  0  0  0  0  0  0  0  0  0
    2.7082    0.4664    0.9884 H   0  0  0  0  0  0  0  0  0  0  0  0
    0.4248    0.9942    1.3954 H   0  0  0  0  0  0  0  0  0  0  0  0
   -0.7046    2.7776   -1.3115 H   0  0  0  0  0  0  0  0  0  0  0  0
   -0.8169    2.3629    0.4900 H   0  0  0  0  0  0  0  0  0  0  0  0
   -1.4829    0.5539   -1.8389 H   0  0  0  0  0  0  0  0  0  0  0  0
   -2.3133    0.7771   -0.2169 H   0  0  0  0  0  0  0  0  0  0  0  0
    0.4520   -2.2903   -0.3303 H   0  0  0  0  0  0  0  0  0  0  0  0
   -1.2031   -2.0346   -1.1528 H   0  0  0  0  0  0  0  0  0  0  0  0
   -0.5071   -1.4652    1.8161 H   0  0  0  0  0  0  0  0  0  0  0  0
   -2.2022   -1.1225    0.9835 H   0  0  0  0  0  0  0  0  0  0  0  0
  1  2  1  0
  2  3  1  0
  3  4  1  0
  4  5  1  0
  5  6  1  0
  6  7  1  0
  7  8  1  0
  8  9  1  0
  7  3  1  0
  9  7  1  0
  1 10  1  0
  2 11  1  0
  2 12  1  0
  3 13  1  0
  5 14  1  0
  5 15  1  0
  6 16  1  0
  6 17  1  0
  8 18  1  0
  8 19  1  0
  9 20  1  0
  9 21  1  0
M  END
