
     RDKit          3D

 16 17  0  0  0  0  0  0  0  0999 V2000
    2.1526   -0.9349   -0.6087 O   0  0  0  0  0  0  0  0  0  0  0  0
    1.6680    0.3555   -0.3780 C   0  0  0  0  0  0  0  0  0  0  0  0
    0.3612    0.2489    0.3821 C   0  0  0  0  0  0  0  0  0  0  0  0
   -0.7821    1.1195    0.0228 C   0  0  0  0  0  0  0  0  0  0  0  0
   -1.9916    0.3485    0.3708 C   0  0  0  0  0  0  0  0  0  0  0  0
   -1.7127   -0.8812    0.7049 C   0  0  0  0  0  0  0  0  0  0  0  0
   -0.2503   -1.0788    0.6174 C   0  0  0  0  0  0  0  0  0  0  0  0
    0.4355   -0.3756    1.6051 O   0  0  0  0  0  0  0  0  0  0  0  0
    3.0105   -1.1050   -0.1352 H   0  0  0  0  0  0  0  0  0  0  0  0
    1.5364    0.8176   -1.3745 H   0  0  0  0  0  0  0  0  0  0  0  0
    2.4143    0.8700    0.2538 H   0  0  0  0  0  0  0  0  0  0  0  0
   -0.8480    1.3237   -1.0807 H   0  0  0  0  0  0  0  0  0  0  0  0
   -0.7701    2.1080    0.5281 H   0  0  0  0  0  0  0  0  0  0  0  0
   -2.9841    0.8120    0.3337 H   0  0  0  0  0  0  0  0  0  0  0  0
   -2.4143   -1.6347    0.9964 H   0  0  0  0  0  0  0  0  0  0  0  0
    0.1748   -1.9936    0.1901 H   0  0  0  0  0  0  0  0  0  0  0  0
  1  2  1  0
  2  3  1  0
  3  4  1  0
  4  5  1  0
  5  6  2  0
  6  7  1  0
  7  8  1  0
  7  3  1  0
  8  3  1  0
  1  9  1  0
  2 10  1  0
  2 11  1  0
  4 12  1  0
  4 13  1  0
  5 14  1  0
  6 15  1  0
  7 16  1  0
M  END
