
     RDKit          3D

 16 18  0  0  0  0  0  0  0  0999 V2000
   -2.5765    1.1565   -0.1325 O   0  0  0  0  0  0  0  0  0  0  0  0
   -1.8228    0.1290    0.4718 C   0  0  0  0  0  0  0  0  0  0  0  0
   -0.5107   -0.0066   -0.2189 C   0  0  0  0  0  0  0  0  0  0  0  0
   -0.5042   -0.3116   -1.5494 O   0  0  0  0  0  0  0  0  0  0  0  0
    0.0839   -1.2070   -0.6930 C   0  0  0  0  0  0  0  0  0  0  0  0
    1.4548   -0.8318   -0.2148 C   0  0  0  0  0  0  0  0  0  0  0  0
    1.9355    0.5523   -0.3832 C   0  0  0  0  0  0  0  0  0  0  0  0
    0.7741    0.3615    0.4983 C   0  0  0  0  0  0  0  0  0  0  0  0
   -2.0306    1.9732   -0.0746 H   0  0  0  0  0  0  0  0  0  0  0  0
   -1.6067    0.4758    1.5245 H   0  0  0  0  0  0  0  0  0  0  0  0
   -2.3911   -0.8049    0.5653 H   0  0  0  0  0  0  0  0  0  0  0  0
   -0.3206   -2.1960   -0.4996 H   0  0  0  0  0  0  0  0  0  0  0  0
    2.0675   -1.5057    0.3722 H   0  0  0  0  0  0  0  0  0  0  0  0
    1.7247    1.1228   -1.3282 H   0  0  0  0  0  0  0  0  0  0  0  0
    2.9039    0.8184    0.0831 H   0  0  0  0  0  0  0  0  0  0  0  0
    0.8187    0.2742    1.5792 H   0  0  0  0  0  0  0  0  0  0  0  0
  1  2  1  0
  2  3  1  0
  3  4  1  0
  4  5  1  0
  5  6  1  0
  6  7  1  0
  7  8  1  0
  5  3  1  0
  8  6  1  0
  8  3  1  0
  1  9  1  0
  2 10  1  0
  2 11  1  0
  5 12  1  0
  6 13  1  0
  7 14  1  0
  7 15  1  0
  8 16  1  0
M  END
