
     RDKit          3D

 21 22  0  0  0  0  0  0  0  0999 V2000
   -2.0922   -1.8690    0.3708 O   0  0  0  0  0  0  0  0  0  0  0  0
   -0.7934   -1.5130    0.0149 C   0  0  0  0  0  0  0  0  0  0  0  0
   -0.4298   -0.1395    0.5228 C   0  0  0  0  0  0  0  0  0  0  0  0
   -1.4394    0.8263   -0.1181 C   0  0  0  0  0  0  0  0  0  0  0  0
   -0.5775    2.0124   -0.3967 C   0  0  0  0  0  0  0  0  0  0  0  0
    0.7266    1.6176   -0.4790 O   0  0  0  0  0  0  0  0  0  0  0  0
    0.8723    0.3657    0.0511 C   0  0  0  0  0  0  0  0  0  0  0  0
    1.9294   -0.4988   -0.5198 C   0  0  0  0  0  0  0  0  0  0  0  0
    2.1484    0.1343    0.8044 C   0  0  0  0  0  0  0  0  0  0  0  0
   -2.6025   -2.2665   -0.3523 H   0  0  0  0  0  0  0  0  0  0  0  0
   -0.6871   -1.6282   -1.0590 H   0  0  0  0  0  0  0  0  0  0  0  0
   -0.1260   -2.2807    0.5010 H   0  0  0  0  0  0  0  0  0  0  0  0
   -0.5382   -0.1003    1.6136 H   0  0  0  0  0  0  0  0  0  0  0  0
   -2.2858    1.0174    0.5556 H   0  0  0  0  0  0  0  0  0  0  0  0
   -1.8003    0.4004   -1.0711 H   0  0  0  0  0  0  0  0  0  0  0  0
   -0.7751    2.8071    0.3537 H   0  0  0  0  0  0  0  0  0  0  0  0
   -0.8913    2.4404   -1.3833 H   0  0  0  0  0  0  0  0  0  0  0  0
    1.8268   -1.6090   -0.5032 H   0  0  0  0  0  0  0  0  0  0  0  0
    2.4396   -0.1296   -1.4256 H   0  0  0  0  0  0  0  0  0  0  0  0
    2.9388    0.9230    0.8146 H   0  0  0  0  0  0  0  0  0  0  0  0
    2.1566   -0.5100    1.7056 H   0  0  0  0  0  0  0  0  0  0  0  0
  1  2  1  0
  2  3  1  0
  3  4  1  0
  4  5  1  0
  5  6  1  0
  6  7  1  0
  7  8  1  0
  8  9  1  0
  7  3  1  0
  9  7  1  0
  1 10  1  0
  2 11  1  0
  2 12  1  0
  3 13  1  0
  4 14  1  0
  4 15  1  0
  5 16  1  0
  5 17  1  0
  8 18  1  0
  8 19  1  0
  9 20  1  0
  9 21  1  0
M  END
