
     RDKit          3D

 21 22  0  0  0  0  0  0  0  0999 V2000
   -3.2002    0.0759   -0.5786 O   0  0  0  0  0  0  0  0  0  0  0  0
   -2.1136   -0.6761   -0.1774 C   0  0  0  0  0  0  0  0  0  0  0  0
   -0.8115   -0.1626   -0.7569 C   0  0  0  0  0  0  0  0  0  0  0  0
   -0.5152    1.2459   -0.3548 C   0  0  0  0  0  0  0  0  0  0  0  0
    1.0011    1.3323   -0.4546 C   0  0  0  0  0  0  0  0  0  0  0  0
    1.4884   -0.0650   -0.2311 C   0  0  0  0  0  0  0  0  0  0  0  0
    2.6907   -0.3954    0.5023 C   0  0  0  0  0  0  0  0  0  0  0  0
    2.5511   -0.5655   -0.9693 O   0  0  0  0  0  0  0  0  0  0  0  0
    0.3035   -0.9649   -0.1083 C   0  0  0  0  0  0  0  0  0  0  0  0
   -3.9673   -0.2066    0.0061 H   0  0  0  0  0  0  0  0  0  0  0  0
   -2.2632   -1.7077   -0.5608 H   0  0  0  0  0  0  0  0  0  0  0  0
   -2.0392   -0.7088    0.9267 H   0  0  0  0  0  0  0  0  0  0  0  0
   -0.7621   -0.2810   -1.8435 H   0  0  0  0  0  0  0  0  0  0  0  0
   -0.8728    1.4979    0.6625 H   0  0  0  0  0  0  0  0  0  0  0  0
   -0.9712    1.9443   -1.0777 H   0  0  0  0  0  0  0  0  0  0  0  0
    1.3438    1.7971   -1.3814 H   0  0  0  0  0  0  0  0  0  0  0  0
    1.3317    1.9466    0.4091 H   0  0  0  0  0  0  0  0  0  0  0  0
    3.5418    0.2855    0.6702 H   0  0  0  0  0  0  0  0  0  0  0  0
    2.7444   -1.3628    1.0367 H   0  0  0  0  0  0  0  0  0  0  0  0
    0.0832   -1.0861    0.9882 H   0  0  0  0  0  0  0  0  0  0  0  0
    0.4366   -1.9431   -0.5954 H   0  0  0  0  0  0  0  0  0  0  0  0
  1  2  1  0
  2  3  1  0
  3  4  1  0
  4  5  1  0
  5  6  1  0
  6  7  1  0
  7  8  1  0
  6  9  1  0
  9  3  1  0
  8  6  1  0
  1 10  1  0
  2 11  1  0
  2 12  1  0
  3 13  1  0
  4 14  1  0
  4 15  1  0
  5 16  1  0
  5 17  1  0
  7 18  1  0
  7 19  1  0
  9 20  1  0
  9 21  1  0
M  END
