
     RDKit          3D

 18 19  0  0  0  0  0  0  0  0999 V2000
    2.6967   -0.2901   -0.1928 O   0  0  0  0  0  0  0  0  0  0  0  0
    1.5737   -0.5689    0.6225 C   0  0  0  0  0  0  0  0  0  0  0  0
    0.4918    0.3820    0.1806 C   0  0  0  0  0  0  0  0  0  0  0  0
    0.1765    0.1395   -1.2999 C   0  0  0  0  0  0  0  0  0  0  0  0
   -1.2817    0.3564   -0.8856 C   0  0  0  0  0  0  0  0  0  0  0  0
   -1.8426   -0.7587   -0.1165 C   0  0  0  0  0  0  0  0  0  0  0  0
   -0.8918    0.0885    0.5956 C   0  0  0  0  0  0  0  0  0  0  0  0
   -1.4277    1.0050    1.5285 O   0  0  0  0  0  0  0  0  0  0  0  0
    2.8796    0.7011   -0.1741 H   0  0  0  0  0  0  0  0  0  0  0  0
    1.9014   -0.4295    1.6519 H   0  0  0  0  0  0  0  0  0  0  0  0
    1.2932   -1.6175    0.3916 H   0  0  0  0  0  0  0  0  0  0  0  0
    0.7718    1.4495    0.2931 H   0  0  0  0  0  0  0  0  0  0  0  0
    0.5789    0.8774   -1.9850 H   0  0  0  0  0  0  0  0  0  0  0  0
    0.3817   -0.9000   -1.6136 H   0  0  0  0  0  0  0  0  0  0  0  0
   -1.7628    1.3060   -1.0691 H   0  0  0  0  0  0  0  0  0  0  0  0
   -2.9050   -0.6812    0.1665 H   0  0  0  0  0  0  0  0  0  0  0  0
   -1.5778   -1.7821   -0.4935 H   0  0  0  0  0  0  0  0  0  0  0  0
   -1.0558    0.7226    2.3999 H   0  0  0  0  0  0  0  0  0  0  0  0
  1  2  1  0
  2  3  1  0
  3  4  1  0
  4  5  1  0
  5  6  1  0
  6  7  1  0
  7  8  1  0
  7  3  1  0
  7  5  1  0
  1  9  1  0
  2 10  1  0
  2 11  1  0
  3 12  1  0
  4 13  1  0
  4 14  1  0
  5 15  1  0
  6 16  1  0
  6 17  1  0
  8 18  1  0
M  END
