
     RDKit          3D

 19 20  0  0  0  0  0  0  0  0999 V2000
    2.5590    0.2927   -0.1720 O   0  0  0  0  0  0  0  0  0  0  0  0
    1.6110   -0.7176   -0.2440 C   0  0  0  0  0  0  0  0  0  0  0  0
    0.2393   -0.2889    0.1431 C   0  0  0  0  0  0  0  0  0  0  0  0
   -0.8197   -1.2616   -0.3378 C   0  0  0  0  0  0  0  0  0  0  0  0
   -2.0264   -0.3358   -0.3673 C   0  0  0  0  0  0  0  0  0  0  0  0
   -1.5494    0.8796   -0.7932 O   0  0  0  0  0  0  0  0  0  0  0  0
   -0.2427    1.0121   -0.4151 C   0  0  0  0  0  0  0  0  0  0  0  0
   -0.0367    1.5192    0.9880 C   0  0  0  0  0  0  0  0  0  0  0  0
    0.0672    0.1964    1.4173 O   0  0  0  0  0  0  0  0  0  0  0  0
    2.9572    0.4066    0.7040 H   0  0  0  0  0  0  0  0  0  0  0  0
    1.9521   -1.5256    0.4523 H   0  0  0  0  0  0  0  0  0  0  0  0
    1.5615   -1.1907   -1.2443 H   0  0  0  0  0  0  0  0  0  0  0  0
   -0.5350   -1.5418   -1.3755 H   0  0  0  0  0  0  0  0  0  0  0  0
   -0.9441   -2.1088    0.3367 H   0  0  0  0  0  0  0  0  0  0  0  0
   -2.7708   -0.6945   -1.0793 H   0  0  0  0  0  0  0  0  0  0  0  0
   -2.4319   -0.2957    0.6770 H   0  0  0  0  0  0  0  0  0  0  0  0
    0.4203    1.4587   -1.1814 H   0  0  0  0  0  0  0  0  0  0  0  0
    0.8851    2.1203    1.1009 H   0  0  0  0  0  0  0  0  0  0  0  0
   -0.8961    2.0756    1.3907 H   0  0  0  0  0  0  0  0  0  0  0  0
  1  2  1  0
  2  3  1  0
  3  4  1  0
  4  5  1  0
  5  6  1  0
  6  7  1  0
  7  8  1  0
  8  9  1  0
  7  3  1  0
  9  3  1  0
  1 10  1  0
  2 11  1  0
  2 12  1  0
  4 13  1  0
  4 14  1  0
  5 15  1  0
  5 16  1  0
  7 17  1  0
  8 18  1  0
  8 19  1  0
M  END
