
     RDKit          3D

 21 22  0  0  0  0  0  0  0  0999 V2000
    2.8634   -0.1622   -0.1189 O   0  0  0  0  0  0  0  0  0  0  0  0
    1.6915    0.4650    0.3150 C   0  0  0  0  0  0  0  0  0  0  0  0
    0.5038   -0.1251   -0.4372 C   0  0  0  0  0  0  0  0  0  0  0  0
    0.6157    0.0532   -1.7895 O   0  0  0  0  0  0  0  0  0  0  0  0
    0.3091   -1.5647    0.0266 C   0  0  0  0  0  0  0  0  0  0  0  0
   -0.6011   -0.9717    1.1172 C   0  0  0  0  0  0  0  0  0  0  0  0
   -0.8275    0.1341    0.1676 C   0  0  0  0  0  0  0  0  0  0  0  0
   -2.0691    0.2760   -0.5869 C   0  0  0  0  0  0  0  0  0  0  0  0
   -1.4925    1.3685    0.3429 C   0  0  0  0  0  0  0  0  0  0  0  0
    3.3198    0.3926   -0.8107 H   0  0  0  0  0  0  0  0  0  0  0  0
    1.7871    1.5529    0.1443 H   0  0  0  0  0  0  0  0  0  0  0  0
    1.6115    0.2504    1.4086 H   0  0  0  0  0  0  0  0  0  0  0  0
    1.2198    0.8194   -1.9561 H   0  0  0  0  0  0  0  0  0  0  0  0
   -0.3447   -2.1340   -0.6783 H   0  0  0  0  0  0  0  0  0  0  0  0
    1.1957   -2.0670    0.3936 H   0  0  0  0  0  0  0  0  0  0  0  0
   -1.5032   -1.5715    1.2942 H   0  0  0  0  0  0  0  0  0  0  0  0
   -0.0467   -0.7486    2.0563 H   0  0  0  0  0  0  0  0  0  0  0  0
   -2.9503   -0.2952   -0.1730 H   0  0  0  0  0  0  0  0  0  0  0  0
   -2.0123    0.4358   -1.6662 H   0  0  0  0  0  0  0  0  0  0  0  0
   -2.1356    1.6220    1.1855 H   0  0  0  0  0  0  0  0  0  0  0  0
   -1.1345    2.2701   -0.2349 H   0  0  0  0  0  0  0  0  0  0  0  0
  1  2  1  0
  2  3  1  0
  3  4  1  0
  3  5  1  0
  5  6  1  0
  6  7  1  0
  7  8  1  0
  8  9  1  0
  7  3  1  0
  9  7  1  0
  1 10  1  0
  2 11  1  0
  2 12  1  0
  4 13  1  0
  5 14  1  0
  5 15  1  0
  6 16  1  0
  6 17  1  0
  8 18  1  0
  8 19  1  0
  9 20  1  0
  9 21  1  0
M  END
