
     RDKit          3D

 19 20  0  0  0  0  0  0  0  0999 V2000
    2.9874   -0.1798    0.2689 O   0  0  0  0  0  0  0  0  0  0  0  0
    1.9232    0.3627   -0.4446 C   0  0  0  0  0  0  0  0  0  0  0  0
    0.5887    0.0030    0.1645 C   0  0  0  0  0  0  0  0  0  0  0  0
   -0.0765    0.8778    1.1324 C   0  0  0  0  0  0  0  0  0  0  0  0
   -0.6318    0.7063   -0.2482 C   0  0  0  0  0  0  0  0  0  0  0  0
   -0.6322    1.8312   -1.0387 O   0  0  0  0  0  0  0  0  0  0  0  0
   -1.6092   -0.4107   -0.5104 C   0  0  0  0  0  0  0  0  0  0  0  0
   -1.0403   -1.5139    0.3910 C   0  0  0  0  0  0  0  0  0  0  0  0
    0.3263   -1.3507    0.2316 O   0  0  0  0  0  0  0  0  0  0  0  0
    2.9184   -1.1842    0.2552 H   0  0  0  0  0  0  0  0  0  0  0  0
    2.0725    1.4599   -0.5038 H   0  0  0  0  0  0  0  0  0  0  0  0
    1.9364   -0.1090   -1.4618 H   0  0  0  0  0  0  0  0  0  0  0  0
   -0.7097    0.4663    1.9354 H   0  0  0  0  0  0  0  0  0  0  0  0
    0.3867    1.8430    1.3868 H   0  0  0  0  0  0  0  0  0  0  0  0
   -1.5922    2.0797   -1.1975 H   0  0  0  0  0  0  0  0  0  0  0  0
   -1.4699   -0.7976   -1.5545 H   0  0  0  0  0  0  0  0  0  0  0  0
   -2.6425   -0.1673   -0.2679 H   0  0  0  0  0  0  0  0  0  0  0  0
   -1.3638   -2.5141    0.0367 H   0  0  0  0  0  0  0  0  0  0  0  0
   -1.3716   -1.4025    1.4250 H   0  0  0  0  0  0  0  0  0  0  0  0
  1  2  1  0
  2  3  1  0
  3  4  1  0
  4  5  1  0
  5  6  1  0
  5  7  1  0
  7  8  1  0
  8  9  1  0
  5  3  1  0
  9  3  1  0
  1 10  1  0
  2 11  1  0
  2 12  1  0
  4 13  1  0
  4 14  1  0
  6 15  1  0
  7 16  1  0
  7 17  1  0
  8 18  1  0
  8 19  1  0
M  END
