
     RDKit          3D

 19 20  0  0  0  0  0  0  0  0999 V2000
    2.9341   -0.5136   -0.6213 O   0  0  0  0  0  0  0  0  0  0  0  0
    1.5500   -0.3099   -0.8886 C   0  0  0  0  0  0  0  0  0  0  0  0
    0.9120   -0.0562    0.4478 C   0  0  0  0  0  0  0  0  0  0  0  0
    0.3454    1.2561    0.6010 C   0  0  0  0  0  0  0  0  0  0  0  0
   -0.9273    1.4202    0.2749 C   0  0  0  0  0  0  0  0  0  0  0  0
   -1.8133    0.3179   -0.2451 C   0  0  0  0  0  0  0  0  0  0  0  0
   -1.0889   -1.0430   -0.1871 C   0  0  0  0  0  0  0  0  0  0  0  0
   -0.2066   -0.9615    0.9676 C   0  0  0  0  0  0  0  0  0  0  0  0
    1.0595   -1.0999    1.2648 O   0  0  0  0  0  0  0  0  0  0  0  0
    3.2313    0.1001    0.0955 H   0  0  0  0  0  0  0  0  0  0  0  0
    1.4885    0.5105   -1.5965 H   0  0  0  0  0  0  0  0  0  0  0  0
    1.2764   -1.3138   -1.3332 H   0  0  0  0  0  0  0  0  0  0  0  0
    0.9028    2.0972    0.9637 H   0  0  0  0  0  0  0  0  0  0  0  0
   -1.4429    2.3832    0.3590 H   0  0  0  0  0  0  0  0  0  0  0  0
   -2.6277    0.2374    0.5111 H   0  0  0  0  0  0  0  0  0  0  0  0
   -2.2062    0.5270   -1.2379 H   0  0  0  0  0  0  0  0  0  0  0  0
   -1.9142   -1.8017   -0.0727 H   0  0  0  0  0  0  0  0  0  0  0  0
   -0.6886   -1.1688   -1.1844 H   0  0  0  0  0  0  0  0  0  0  0  0
   -0.7842   -0.5811    1.8813 H   0  0  0  0  0  0  0  0  0  0  0  0
  1  2  1  0
  2  3  1  0
  3  4  1  0
  4  5  2  0
  5  6  1  0
  6  7  1  0
  7  8  1  0
  8  9  1  0
  8  3  1  0
  9  3  1  0
  1 10  1  0
  2 11  1  0
  2 12  1  0
  4 13  1  0
  5 14  1  0
  6 15  1  0
  6 16  1  0
  7 17  1  0
  7 18  1  0
  8 19  1  0
M  END
