
     RDKit          3D

 18 19  0  0  0  0  0  0  0  0999 V2000
    3.2203   -0.1044    0.4852 O   0  0  0  0  0  0  0  0  0  0  0  0
    2.0710    0.6375    0.5083 C   0  0  0  0  0  0  0  0  0  0  0  0
    0.9892    0.0028   -0.3792 C   0  0  0  0  0  0  0  0  0  0  0  0
   -0.2547    0.6315   -0.4726 C   0  0  0  0  0  0  0  0  0  0  0  0
   -1.6015    0.2195   -0.9488 C   0  0  0  0  0  0  0  0  0  0  0  0
   -2.1173   -0.3900    0.3723 C   0  0  0  0  0  0  0  0  0  0  0  0
   -0.9589   -0.5439    1.1826 O   0  0  0  0  0  0  0  0  0  0  0  0
   -0.0095   -0.7652    0.2355 C   0  0  0  0  0  0  0  0  0  0  0  0
    3.1207   -1.0546    0.6571 H   0  0  0  0  0  0  0  0  0  0  0  0
    1.6442    0.7554    1.5447 H   0  0  0  0  0  0  0  0  0  0  0  0
    2.3146    1.6593    0.1492 H   0  0  0  0  0  0  0  0  0  0  0  0
    1.4797   -0.3625   -1.3273 H   0  0  0  0  0  0  0  0  0  0  0  0
   -0.4140    1.5039    0.2393 H   0  0  0  0  0  0  0  0  0  0  0  0
   -1.5083   -0.5850   -1.6956 H   0  0  0  0  0  0  0  0  0  0  0  0
   -2.2331    1.0316   -1.2962 H   0  0  0  0  0  0  0  0  0  0  0  0
   -2.6300   -1.3357    0.2068 H   0  0  0  0  0  0  0  0  0  0  0  0
   -2.7757    0.3759    0.8197 H   0  0  0  0  0  0  0  0  0  0  0  0
   -0.3366   -1.6762   -0.3597 H   0  0  0  0  0  0  0  0  0  0  0  0
  1  2  1  0
  2  3  1  0
  3  4  1  0
  4  5  1  0
  5  6  1  0
  6  7  1  0
  7  8  1  0
  8  3  1  0
  8  4  1  0
  1  9  1  0
  2 10  1  0
  2 11  1  0
  3 12  1  0
  4 13  1  0
  5 14  1  0
  5 15  1  0
  6 16  1  0
  6 17  1  0
  8 18  1  0
M  END
