
     RDKit          3D

 21 22  0  0  0  0  0  0  0  0999 V2000
   -2.1161   -1.2654    0.5673 O   0  0  0  0  0  0  0  0  0  0  0  0
   -0.9681   -1.2526   -0.2534 C   0  0  0  0  0  0  0  0  0  0  0  0
   -0.4079    0.1320   -0.2545 C   0  0  0  0  0  0  0  0  0  0  0  0
   -1.3805    1.1838   -0.7850 C   0  0  0  0  0  0  0  0  0  0  0  0
   -2.5003    1.1617    0.0321 O   0  0  0  0  0  0  0  0  0  0  0  0
    0.9810    0.2824   -0.7480 C   0  0  0  0  0  0  0  0  0  0  0  0
    2.0666   -0.6238   -0.2676 C   0  0  0  0  0  0  0  0  0  0  0  0
    1.7616   -0.1834    1.1476 C   0  0  0  0  0  0  0  0  0  0  0  0
    0.5930    0.6118    0.6888 C   0  0  0  0  0  0  0  0  0  0  0  0
   -2.0262   -1.9214    1.3055 H   0  0  0  0  0  0  0  0  0  0  0  0
   -0.2604   -2.0064    0.1388 H   0  0  0  0  0  0  0  0  0  0  0  0
   -1.3423   -1.4955   -1.2741 H   0  0  0  0  0  0  0  0  0  0  0  0
   -1.6668    0.8425   -1.8007 H   0  0  0  0  0  0  0  0  0  0  0  0
   -0.9046    2.1949   -0.7934 H   0  0  0  0  0  0  0  0  0  0  0  0
   -2.7539    2.0484    0.3793 H   0  0  0  0  0  0  0  0  0  0  0  0
    1.2362    1.1185   -1.4321 H   0  0  0  0  0  0  0  0  0  0  0  0
    1.8919   -1.7012   -0.4069 H   0  0  0  0  0  0  0  0  0  0  0  0
    3.0667   -0.2874   -0.6117 H   0  0  0  0  0  0  0  0  0  0  0  0
    1.5514   -1.0022    1.8372 H   0  0  0  0  0  0  0  0  0  0  0  0
    2.5904    0.4623    1.5591 H   0  0  0  0  0  0  0  0  0  0  0  0
    0.5882    1.7010    0.9716 H   0  0  0  0  0  0  0  0  0  0  0  0
  1  2  1  0
  2  3  1  0
  3  4  1  0
  4  5  1  0
  3  6  1  0
  6  7  1  0
  7  8  1  0
  8  9  1  0
  9  3  1  0
  9  6  1  0
  1 10  1  0
  2 11  1  0
  2 12  1  0
  4 13  1  0
  4 14  1  0
  5 15  1  0
  6 16  1  0
  7 17  1  0
  7 18  1  0
  8 19  1  0
  8 20  1  0
  9 21  1  0
M  END
