
     RDKit          3D

 21 22  0  0  0  0  0  0  0  0999 V2000
    2.7178    1.0204   -0.5640 O   0  0  0  0  0  0  0  0  0  0  0  0
    2.1244   -0.1262   -0.1024 C   0  0  0  0  0  0  0  0  0  0  0  0
    0.6652    0.0631    0.2326 C   0  0  0  0  0  0  0  0  0  0  0  0
    0.0456   -1.2190    0.7370 C   0  0  0  0  0  0  0  0  0  0  0  0
   -1.4178   -1.1354    0.3575 C   0  0  0  0  0  0  0  0  0  0  0  0
   -1.5562    0.0023   -0.6026 C   0  0  0  0  0  0  0  0  0  0  0  0
   -1.6288    1.3724   -0.0106 C   0  0  0  0  0  0  0  0  0  0  0  0
   -0.6299    1.8074   -0.8757 O   0  0  0  0  0  0  0  0  0  0  0  0
   -0.1656    0.4766   -0.9351 C   0  0  0  0  0  0  0  0  0  0  0  0
    3.4431    1.3254    0.0337 H   0  0  0  0  0  0  0  0  0  0  0  0
    2.6190   -0.4679    0.8466 H   0  0  0  0  0  0  0  0  0  0  0  0
    2.2866   -0.9361   -0.8399 H   0  0  0  0  0  0  0  0  0  0  0  0
    0.5674    0.8369    1.0159 H   0  0  0  0  0  0  0  0  0  0  0  0
    0.1621   -1.2215    1.8460 H   0  0  0  0  0  0  0  0  0  0  0  0
    0.5350   -2.1240    0.3250 H   0  0  0  0  0  0  0  0  0  0  0  0
   -2.0463   -1.0533    1.2574 H   0  0  0  0  0  0  0  0  0  0  0  0
   -1.7194   -2.0676   -0.1621 H   0  0  0  0  0  0  0  0  0  0  0  0
   -2.2422   -0.1239   -1.4391 H   0  0  0  0  0  0  0  0  0  0  0  0
   -2.5739    1.9464   -0.2386 H   0  0  0  0  0  0  0  0  0  0  0  0
   -1.3952    1.3926    1.0571 H   0  0  0  0  0  0  0  0  0  0  0  0
    0.2092    0.2315   -1.9388 H   0  0  0  0  0  0  0  0  0  0  0  0
  1  2  1  0
  2  3  1  0
  3  4  1  0
  4  5  1  0
  5  6  1  0
  6  7  1  0
  7  8  1  0
  8  9  1  0
  9  3  1  0
  9  6  1  0
  1 10  1  0
  2 11  1  0
  2 12  1  0
  3 13  1  0
  4 14  1  0
  4 15  1  0
  5 16  1  0
  5 17  1  0
  6 18  1  0
  7 19  1  0
  7 20  1  0
  9 21  1  0
M  END
