
     RDKit          3D

 19 19  0  0  0  0  0  0  0  0999 V2000
   -1.6377   -1.2413    1.4810 O   0  0  0  0  0  0  0  0  0  0  0  0
   -1.5787   -0.6012    0.2594 C   0  0  0  0  0  0  0  0  0  0  0  0
   -0.1822   -0.1464   -0.1059 C   0  0  0  0  0  0  0  0  0  0  0  0
   -0.2982    0.5859   -1.4183 C   0  0  0  0  0  0  0  0  0  0  0  0
   -1.2397    1.6164   -1.2143 O   0  0  0  0  0  0  0  0  0  0  0  0
    0.8076   -1.2247   -0.0885 C   0  0  0  0  0  0  0  0  0  0  0  0
    1.9158   -0.6948    0.4010 C   0  0  0  0  0  0  0  0  0  0  0  0
    1.6223    0.7238    0.6915 C   0  0  0  0  0  0  0  0  0  0  0  0
    0.2522    0.7492    0.8916 O   0  0  0  0  0  0  0  0  0  0  0  0
   -1.9908   -0.6295    2.1836 H   0  0  0  0  0  0  0  0  0  0  0  0
   -1.9502   -1.2264   -0.5757 H   0  0  0  0  0  0  0  0  0  0  0  0
   -2.2045    0.3171    0.2587 H   0  0  0  0  0  0  0  0  0  0  0  0
   -0.6962   -0.1430   -2.1844 H   0  0  0  0  0  0  0  0  0  0  0  0
    0.6471    0.9825   -1.7998 H   0  0  0  0  0  0  0  0  0  0  0  0
   -1.1401    1.9796   -0.2858 H   0  0  0  0  0  0  0  0  0  0  0  0
    0.7074   -2.2510   -0.3973 H   0  0  0  0  0  0  0  0  0  0  0  0
    2.8808   -1.2020    0.5661 H   0  0  0  0  0  0  0  0  0  0  0  0
    1.8964    1.2975   -0.2275 H   0  0  0  0  0  0  0  0  0  0  0  0
    2.1887    1.1081    1.5647 H   0  0  0  0  0  0  0  0  0  0  0  0
  1  2  1  0
  2  3  1  0
  3  4  1  0
  4  5  1  0
  3  6  1  0
  6  7  2  0
  7  8  1  0
  8  9  1  0
  9  3  1  0
  1 10  1  0
  2 11  1  0
  2 12  1  0
  4 13  1  0
  4 14  1  0
  5 15  1  0
  6 16  1  0
  7 17  1  0
  8 18  1  0
  8 19  1  0
M  END
