
     RDKit          3D

 18 18  0  0  0  0  0  0  0  0999 V2000
    1.2762    0.0067    1.6163 O   0  0  0  0  0  0  0  0  0  0  0  0
    1.6826   -0.0342    0.3057 C   0  0  0  0  0  0  0  0  0  0  0  0
    0.5347   -0.0090   -0.6749 C   0  0  0  0  0  0  0  0  0  0  0  0
   -0.3120    1.2075   -0.5637 C   0  0  0  0  0  0  0  0  0  0  0  0
   -1.2953    1.1585    0.3807 O   0  0  0  0  0  0  0  0  0  0  0  0
   -1.8954   -0.0522    0.5604 C   0  0  0  0  0  0  0  0  0  0  0  0
   -1.0248   -1.1239    0.6687 O   0  0  0  0  0  0  0  0  0  0  0  0
   -0.3011   -1.2440   -0.5130 C   0  0  0  0  0  0  0  0  0  0  0  0
    1.9000    0.5905    2.1146 H   0  0  0  0  0  0  0  0  0  0  0  0
    2.2239   -1.0060    0.1407 H   0  0  0  0  0  0  0  0  0  0  0  0
    2.4125    0.7720    0.0885 H   0  0  0  0  0  0  0  0  0  0  0  0
    0.9938   -0.0170   -1.6989 H   0  0  0  0  0  0  0  0  0  0  0  0
   -0.7657    1.4085   -1.5686 H   0  0  0  0  0  0  0  0  0  0  0  0
    0.3190    2.1160   -0.3453 H   0  0  0  0  0  0  0  0  0  0  0  0
   -2.4701   -0.0093    1.5166 H   0  0  0  0  0  0  0  0  0  0  0  0
   -2.6628   -0.2978   -0.2236 H   0  0  0  0  0  0  0  0  0  0  0  0
   -1.0158   -1.3542   -1.3556 H   0  0  0  0  0  0  0  0  0  0  0  0
    0.4001   -2.1121   -0.4487 H   0  0  0  0  0  0  0  0  0  0  0  0
  1  2  1  0
  2  3  1  0
  3  4  1  0
  4  5  1  0
  5  6  1  0
  6  7  1  0
  7  8  1  0
  8  3  1  0
  1  9  1  0
  2 10  1  0
  2 11  1  0
  3 12  1  0
  4 13  1  0
  4 14  1  0
  6 15  1  0
  6 16  1  0
  8 17  1  0
  8 18  1  0
M  END
