
     RDKit          3D

 21 22  0  0  0  0  0  0  0  0999 V2000
    2.0427   -0.9904    1.0781 O   0  0  0  0  0  0  0  0  0  0  0  0
    1.7602    0.2625    0.5161 C   0  0  0  0  0  0  0  0  0  0  0  0
    0.4934    0.1026   -0.2893 C   0  0  0  0  0  0  0  0  0  0  0  0
    0.1051    1.3523   -0.9216 C   0  0  0  0  0  0  0  0  0  0  0  0
   -1.0411    1.7569   -0.4208 C   0  0  0  0  0  0  0  0  0  0  0  0
   -1.5399    0.8122    0.6048 C   0  0  0  0  0  0  0  0  0  0  0  0
   -0.6277   -0.3628    0.5807 C   0  0  0  0  0  0  0  0  0  0  0  0
   -0.9292   -1.4366   -0.4066 C   0  0  0  0  0  0  0  0  0  0  0  0
    0.3952   -1.1516   -1.1026 C   0  0  0  0  0  0  0  0  0  0  0  0
    1.8843   -0.9858    2.0530 H   0  0  0  0  0  0  0  0  0  0  0  0
    1.5564    1.0301    1.2954 H   0  0  0  0  0  0  0  0  0  0  0  0
    2.5850    0.6400   -0.1010 H   0  0  0  0  0  0  0  0  0  0  0  0
    0.6667    1.8682   -1.6816 H   0  0  0  0  0  0  0  0  0  0  0  0
   -1.6078    2.6630   -0.6821 H   0  0  0  0  0  0  0  0  0  0  0  0
   -2.5710    0.5229    0.2956 H   0  0  0  0  0  0  0  0  0  0  0  0
   -1.5427    1.3365    1.5868 H   0  0  0  0  0  0  0  0  0  0  0  0
   -0.3329   -0.7368    1.5876 H   0  0  0  0  0  0  0  0  0  0  0  0
   -1.8012   -1.3238   -1.0484 H   0  0  0  0  0  0  0  0  0  0  0  0
   -0.9164   -2.4491    0.0820 H   0  0  0  0  0  0  0  0  0  0  0  0
    1.1710   -1.8723   -0.8403 H   0  0  0  0  0  0  0  0  0  0  0  0
    0.2500   -1.0380   -2.1860 H   0  0  0  0  0  0  0  0  0  0  0  0
  1  2  1  0
  2  3  1  0
  3  4  1  0
  4  5  2  0
  5  6  1  0
  6  7  1  0
  7  8  1  0
  8  9  1  0
  7  3  1  0
  9  3  1  0
  1 10  1  0
  2 11  1  0
  2 12  1  0
  4 13  1  0
  5 14  1  0
  6 15  1  0
  6 16  1  0
  7 17  1  0
  8 18  1  0
  8 19  1  0
  9 20  1  0
  9 21  1  0
M  END
