
     RDKit          3D

 18 18  0  0  0  0  0  0  0  0999 V2000
   -2.0185   -1.2903    0.1681 O   0  0  0  0  0  0  0  0  0  0  0  0
   -0.9727   -1.1094   -0.7284 C   0  0  0  0  0  0  0  0  0  0  0  0
   -0.0294   -0.0958   -0.1531 C   0  0  0  0  0  0  0  0  0  0  0  0
    0.4649   -0.4936    1.2095 C   0  0  0  0  0  0  0  0  0  0  0  0
    1.2261   -1.6663    1.0429 O   0  0  0  0  0  0  0  0  0  0  0  0
   -0.4188    1.3422   -0.3152 C   0  0  0  0  0  0  0  0  0  0  0  0
    1.0496    1.4649   -0.5266 C   0  0  0  0  0  0  0  0  0  0  0  0
    1.0500    0.1394   -0.9998 O   0  0  0  0  0  0  0  0  0  0  0  0
   -2.1452   -0.4892    0.7218 H   0  0  0  0  0  0  0  0  0  0  0  0
   -1.4070   -0.7003   -1.6607 H   0  0  0  0  0  0  0  0  0  0  0  0
   -0.4412   -2.0543   -0.8462 H   0  0  0  0  0  0  0  0  0  0  0  0
   -0.3914   -0.8010    1.8714 H   0  0  0  0  0  0  0  0  0  0  0  0
    1.0031    0.2885    1.7449 H   0  0  0  0  0  0  0  0  0  0  0  0
    1.7798   -1.6115    0.2074 H   0  0  0  0  0  0  0  0  0  0  0  0
   -0.9587    1.4740   -1.2852 H   0  0  0  0  0  0  0  0  0  0  0  0
   -0.8464    1.8524    0.5503 H   0  0  0  0  0  0  0  0  0  0  0  0
    1.6921    1.5999    0.3421 H   0  0  0  0  0  0  0  0  0  0  0  0
    1.3638    2.1504   -1.3432 H   0  0  0  0  0  0  0  0  0  0  0  0
  1  2  1  0
  2  3  1  0
  3  4  1  0
  4  5  1  0
  3  6  1  0
  6  7  1  0
  7  8  1  0
  8  3  1  0
  1  9  1  0
  2 10  1  0
  2 11  1  0
  4 12  1  0
  4 13  1  0
  5 14  1  0
  6 15  1  0
  6 16  1  0
  7 17  1  0
  7 18  1  0
M  END
