
     RDKit          3D

 21 22  0  0  0  0  0  0  0  0999 V2000
    2.1753   -0.1302    0.9188 O   0  0  0  0  0  0  0  0  0  0  0  0
    1.9578   -0.4949   -0.4178 C   0  0  0  0  0  0  0  0  0  0  0  0
    0.5118   -0.1244   -0.7193 C   0  0  0  0  0  0  0  0  0  0  0  0
    0.4078    1.3785   -0.4935 C   0  0  0  0  0  0  0  0  0  0  0  0
   -0.8441    1.5957    0.3045 C   0  0  0  0  0  0  0  0  0  0  0  0
   -1.3753    0.2579    0.7109 C   0  0  0  0  0  0  0  0  0  0  0  0
   -2.2853   -0.2345   -0.2225 O   0  0  0  0  0  0  0  0  0  0  0  0
   -1.6000   -1.4533   -0.2312 C   0  0  0  0  0  0  0  0  0  0  0  0
   -0.3577   -0.7809    0.2982 C   0  0  0  0  0  0  0  0  0  0  0  0
    2.0868   -0.9501    1.4483 H   0  0  0  0  0  0  0  0  0  0  0  0
    2.6563    0.1042   -1.0405 H   0  0  0  0  0  0  0  0  0  0  0  0
    2.1314   -1.5773   -0.5690 H   0  0  0  0  0  0  0  0  0  0  0  0
    0.2348   -0.3662   -1.7660 H   0  0  0  0  0  0  0  0  0  0  0  0
    0.4399    1.9199   -1.4360 H   0  0  0  0  0  0  0  0  0  0  0  0
    1.2606    1.7577    0.1266 H   0  0  0  0  0  0  0  0  0  0  0  0
   -0.6605    2.2158    1.2166 H   0  0  0  0  0  0  0  0  0  0  0  0
   -1.5938    2.0856   -0.3575 H   0  0  0  0  0  0  0  0  0  0  0  0
   -1.6905    0.1503    1.7701 H   0  0  0  0  0  0  0  0  0  0  0  0
   -2.0382   -2.1002    0.5681 H   0  0  0  0  0  0  0  0  0  0  0  0
   -1.5301   -1.9178   -1.2149 H   0  0  0  0  0  0  0  0  0  0  0  0
    0.1131   -1.3358    1.1061 H   0  0  0  0  0  0  0  0  0  0  0  0
  1  2  1  0
  2  3  1  0
  3  4  1  0
  4  5  1  0
  5  6  1  0
  6  7  1  0
  7  8  1  0
  8  9  1  0
  9  3  1  0
  9  6  1  0
  1 10  1  0
  2 11  1  0
  2 12  1  0
  3 13  1  0
  4 14  1  0
  4 15  1  0
  5 16  1  0
  5 17  1  0
  6 18  1  0
  8 19  1  0
  8 20  1  0
  9 21  1  0
M  END
