
     RDKit          3D

 19 20  0  0  0  0  0  0  0  0999 V2000
    2.7877   -0.2553   -0.9890 O   0  0  0  0  0  0  0  0  0  0  0  0
    1.8543    0.3514   -0.1647 C   0  0  0  0  0  0  0  0  0  0  0  0
    0.6336   -0.5019    0.0530 C   0  0  0  0  0  0  0  0  0  0  0  0
   -0.0240   -0.7916   -1.1406 O   0  0  0  0  0  0  0  0  0  0  0  0
   -1.2043   -1.3905   -0.6429 C   0  0  0  0  0  0  0  0  0  0  0  0
   -1.6811   -0.4206    0.4265 C   0  0  0  0  0  0  0  0  0  0  0  0
   -2.2016    0.7586   -0.0424 O   0  0  0  0  0  0  0  0  0  0  0  0
   -0.9905    1.4427   -0.0223 C   0  0  0  0  0  0  0  0  0  0  0  0
   -0.4088    0.3050    0.7879 C   0  0  0  0  0  0  0  0  0  0  0  0
    3.3950    0.4833   -1.3049 H   0  0  0  0  0  0  0  0  0  0  0  0
    1.5251    1.2883   -0.6599 H   0  0  0  0  0  0  0  0  0  0  0  0
    2.3217    0.5412    0.8108 H   0  0  0  0  0  0  0  0  0  0  0  0
    0.8363   -1.4424    0.5673 H   0  0  0  0  0  0  0  0  0  0  0  0
   -0.8972   -2.3310   -0.1100 H   0  0  0  0  0  0  0  0  0  0  0  0
   -1.9433   -1.5629   -1.4294 H   0  0  0  0  0  0  0  0  0  0  0  0
   -2.1925   -0.8889    1.2785 H   0  0  0  0  0  0  0  0  0  0  0  0
   -0.4763    1.5155   -1.0001 H   0  0  0  0  0  0  0  0  0  0  0  0
   -1.1012    2.4026    0.5219 H   0  0  0  0  0  0  0  0  0  0  0  0
   -0.2330    0.4964    1.8441 H   0  0  0  0  0  0  0  0  0  0  0  0
  1  2  1  0
  2  3  1  0
  3  4  1  0
  4  5  1  0
  5  6  1  0
  6  7  1  0
  7  8  1  0
  8  9  1  0
  9  3  1  0
  9  6  1  0
  1 10  1  0
  2 11  1  0
  2 12  1  0
  3 13  1  0
  5 14  1  0
  5 15  1  0
  6 16  1  0
  8 17  1  0
  8 18  1  0
  9 19  1  0
M  END
