
     RDKit          3D

 19 20  0  0  0  0  0  0  0  0999 V2000
    3.0282    0.1339    0.2990 O   0  0  0  0  0  0  0  0  0  0  0  0
    1.9943    0.7665    0.9699 C   0  0  0  0  0  0  0  0  0  0  0  0
    0.6516    0.3528    0.4952 C   0  0  0  0  0  0  0  0  0  0  0  0
   -0.3454   -0.2258    1.1772 C   0  0  0  0  0  0  0  0  0  0  0  0
   -1.3712   -0.4516    0.1540 C   0  0  0  0  0  0  0  0  0  0  0  0
   -2.5165   -1.0398    0.3981 O   0  0  0  0  0  0  0  0  0  0  0  0
   -1.3537    0.9036   -0.5701 C   0  0  0  0  0  0  0  0  0  0  0  0
    0.0839    0.4833   -0.8695 C   0  0  0  0  0  0  0  0  0  0  0  0
   -0.5239   -0.9086   -1.0436 C   0  0  0  0  0  0  0  0  0  0  0  0
    2.8857   -0.8359    0.1896 H   0  0  0  0  0  0  0  0  0  0  0  0
    2.1020    0.5844    2.0499 H   0  0  0  0  0  0  0  0  0  0  0  0
    2.0818    1.8494    0.8080 H   0  0  0  0  0  0  0  0  0  0  0  0
   -0.4347   -0.4881    2.2208 H   0  0  0  0  0  0  0  0  0  0  0  0
   -2.4736   -2.0199    0.3499 H   0  0  0  0  0  0  0  0  0  0  0  0
   -1.3700    1.7684    0.0906 H   0  0  0  0  0  0  0  0  0  0  0  0
   -2.0305    0.8999   -1.4226 H   0  0  0  0  0  0  0  0  0  0  0  0
    0.6092    0.9263   -1.6535 H   0  0  0  0  0  0  0  0  0  0  0  0
    0.1489   -1.7386   -0.8409 H   0  0  0  0  0  0  0  0  0  0  0  0
   -1.1661   -0.9603   -1.9234 H   0  0  0  0  0  0  0  0  0  0  0  0
  1  2  1  0
  2  3  1  0
  3  4  2  0
  4  5  1  0
  5  6  1  0
  5  7  1  0
  7  8  1  0
  8  9  1  0
  8  3  1  0
  9  5  1  0
  1 10  1  0
  2 11  1  0
  2 12  1  0
  4 13  1  0
  6 14  1  0
  7 15  1  0
  7 16  1  0
  8 17  1  0
  9 18  1  0
  9 19  1  0
M  END
