
     RDKit          3D

 21 21  0  0  0  0  0  0  0  0999 V2000
    2.7229    1.4305   -0.1490 O   0  0  0  0  0  0  0  0  0  0  0  0
    2.2216    0.1366   -0.2345 C   0  0  0  0  0  0  0  0  0  0  0  0
    0.7690    0.0665    0.0905 C   0  0  0  0  0  0  0  0  0  0  0  0
    0.1680    1.2110    0.4076 C   0  0  0  0  0  0  0  0  0  0  0  0
   -1.2698    1.1591    0.7320 C   0  0  0  0  0  0  0  0  0  0  0  0
   -1.9593    0.1939   -0.1836 C   0  0  0  0  0  0  0  0  0  0  0  0
   -1.3744   -1.1779   -0.1731 C   0  0  0  0  0  0  0  0  0  0  0  0
    0.0953   -1.2349    0.0437 C   0  0  0  0  0  0  0  0  0  0  0  0
    0.6862   -1.9852   -0.9781 O   0  0  0  0  0  0  0  0  0  0  0  0
    2.8435    1.6475    0.8212 H   0  0  0  0  0  0  0  0  0  0  0  0
    2.8000   -0.5282    0.4544 H   0  0  0  0  0  0  0  0  0  0  0  0
    2.3359   -0.2842   -1.2560 H   0  0  0  0  0  0  0  0  0  0  0  0
    0.6877    2.1655    0.4360 H   0  0  0  0  0  0  0  0  0  0  0  0
   -1.7347    2.1625    0.5584 H   0  0  0  0  0  0  0  0  0  0  0  0
   -1.4761    0.9075    1.7902 H   0  0  0  0  0  0  0  0  0  0  0  0
   -1.9966    0.6594   -1.1950 H   0  0  0  0  0  0  0  0  0  0  0  0
   -3.0209    0.1233    0.1542 H   0  0  0  0  0  0  0  0  0  0  0  0
   -1.8708   -1.7918    0.6137 H   0  0  0  0  0  0  0  0  0  0  0  0
   -1.6576   -1.6678   -1.1413 H   0  0  0  0  0  0  0  0  0  0  0  0
    0.3566   -1.7761    0.9954 H   0  0  0  0  0  0  0  0  0  0  0  0
    0.6733   -1.4173   -1.7868 H   0  0  0  0  0  0  0  0  0  0  0  0
  1  2  1  0
  2  3  1  0
  3  4  2  0
  4  5  1  0
  5  6  1  0
  6  7  1  0
  7  8  1  0
  8  9  1  0
  8  3  1  0
  1 10  1  0
  2 11  1  0
  2 12  1  0
  4 13  1  0
  5 14  1  0
  5 15  1  0
  6 16  1  0
  6 17  1  0
  7 18  1  0
  7 19  1  0
  8 20  1  0
  9 21  1  0
M  END
