
     RDKit          3D

 18 18  0  0  0  0  0  0  0  0999 V2000
   -2.2203    0.2603   -1.3761 O   0  0  0  0  0  0  0  0  0  0  0  0
   -1.4397   -0.5374   -0.5331 C   0  0  0  0  0  0  0  0  0  0  0  0
   -0.6001    0.3585    0.3556 C   0  0  0  0  0  0  0  0  0  0  0  0
    0.3036    1.2353   -0.4092 C   0  0  0  0  0  0  0  0  0  0  0  0
    1.5500    0.8208   -0.6078 C   0  0  0  0  0  0  0  0  0  0  0  0
    1.9029   -0.4981   -0.0305 C   0  0  0  0  0  0  0  0  0  0  0  0
    1.4428   -0.5838    1.2584 O   0  0  0  0  0  0  0  0  0  0  0  0
    0.0943   -0.4253    1.4260 C   0  0  0  0  0  0  0  0  0  0  0  0
   -3.1636    0.2896   -1.0744 H   0  0  0  0  0  0  0  0  0  0  0  0
   -0.7976   -1.1477   -1.1808 H   0  0  0  0  0  0  0  0  0  0  0  0
   -2.1192   -1.1175    0.1070 H   0  0  0  0  0  0  0  0  0  0  0  0
   -1.3366    1.0360    0.8764 H   0  0  0  0  0  0  0  0  0  0  0  0
   -0.0012    2.1870   -0.8090 H   0  0  0  0  0  0  0  0  0  0  0  0
    2.2787    1.4272   -1.1714 H   0  0  0  0  0  0  0  0  0  0  0  0
    1.5467   -1.3088   -0.6926 H   0  0  0  0  0  0  0  0  0  0  0  0
    3.0055   -0.5624   -0.0173 H   0  0  0  0  0  0  0  0  0  0  0  0
   -0.3676   -1.4370    1.4434 H   0  0  0  0  0  0  0  0  0  0  0  0
   -0.0788    0.0035    2.4353 H   0  0  0  0  0  0  0  0  0  0  0  0
  1  2  1  0
  2  3  1  0
  3  4  1  0
  4  5  2  0
  5  6  1  0
  6  7  1  0
  7  8  1  0
  8  3  1  0
  1  9  1  0
  2 10  1  0
  2 11  1  0
  3 12  1  0
  4 13  1  0
  5 14  1  0
  6 15  1  0
  6 16  1  0
  8 17  1  0
  8 18  1  0
M  END
