
     RDKit          3D

 19 21  0  0  0  0  0  0  0  0999 V2000
    2.8807    0.8735   -0.7264 O   0  0  0  0  0  0  0  0  0  0  0  0
    2.0956    0.5834    0.3866 C   0  0  0  0  0  0  0  0  0  0  0  0
    0.8597   -0.2077   -0.0611 C   0  0  0  0  0  0  0  0  0  0  0  0
    0.1675    0.5657   -0.9434 O   0  0  0  0  0  0  0  0  0  0  0  0
   -1.1318    0.7122   -0.5411 C   0  0  0  0  0  0  0  0  0  0  0  0
   -1.9027   -0.6099   -0.6824 C   0  0  0  0  0  0  0  0  0  0  0  0
   -1.4274   -0.9561    0.7014 C   0  0  0  0  0  0  0  0  0  0  0  0
   -0.0386   -0.4730    1.1258 C   0  0  0  0  0  0  0  0  0  0  0  0
   -1.1329    0.4710    0.9254 C   0  0  0  0  0  0  0  0  0  0  0  0
    3.4395    0.1246   -1.0201 H   0  0  0  0  0  0  0  0  0  0  0  0
    1.8171    1.5157    0.8837 H   0  0  0  0  0  0  0  0  0  0  0  0
    2.6746   -0.0885    1.0721 H   0  0  0  0  0  0  0  0  0  0  0  0
    1.2047   -1.1848   -0.4584 H   0  0  0  0  0  0  0  0  0  0  0  0
   -1.6500    1.5892   -0.9255 H   0  0  0  0  0  0  0  0  0  0  0  0
   -1.5593   -1.2328   -1.5040 H   0  0  0  0  0  0  0  0  0  0  0  0
   -2.9884   -0.3452   -0.7550 H   0  0  0  0  0  0  0  0  0  0  0  0
   -2.0143   -1.5681    1.3807 H   0  0  0  0  0  0  0  0  0  0  0  0
    0.3484   -0.8290    2.0630 H   0  0  0  0  0  0  0  0  0  0  0  0
   -1.6423    1.0598    1.6547 H   0  0  0  0  0  0  0  0  0  0  0  0
  1  2  1  0
  2  3  1  0
  3  4  1  0
  4  5  1  0
  5  6  1  0
  6  7  1  0
  7  8  1  0
  8  9  1  0
  8  3  1  0
  9  5  1  0
  9  7  1  0
  1 10  1  0
  2 11  1  0
  2 12  1  0
  3 13  1  0
  5 14  1  0
  6 15  1  0
  6 16  1  0
  7 17  1  0
  8 18  1  0
  9 19  1  0
M  END
