
     RDKit          3D

 19 20  0  0  0  0  0  0  0  0999 V2000
   -2.1014   -0.8478    0.7452 O   0  0  0  0  0  0  0  0  0  0  0  0
   -0.7939   -1.0837    0.4126 C   0  0  0  0  0  0  0  0  0  0  0  0
   -0.1369    0.1292   -0.1926 C   0  0  0  0  0  0  0  0  0  0  0  0
    1.2891   -0.0627   -0.5768 C   0  0  0  0  0  0  0  0  0  0  0  0
    2.3279   -0.4207    0.3519 C   0  0  0  0  0  0  0  0  0  0  0  0
    1.7229   -1.4498   -0.4853 O   0  0  0  0  0  0  0  0  0  0  0  0
   -0.4612    1.4395    0.4864 C   0  0  0  0  0  0  0  0  0  0  0  0
   -0.7015    1.9756   -0.7843 O   0  0  0  0  0  0  0  0  0  0  0  0
   -0.9832    0.6999   -1.3048 C   0  0  0  0  0  0  0  0  0  0  0  0
   -2.7422   -0.9854   -0.0163 H   0  0  0  0  0  0  0  0  0  0  0  0
   -0.2409   -1.4023    1.3137 H   0  0  0  0  0  0  0  0  0  0  0  0
   -0.7484   -1.9012   -0.3356 H   0  0  0  0  0  0  0  0  0  0  0  0
    1.5807    0.3613   -1.5602 H   0  0  0  0  0  0  0  0  0  0  0  0
    3.3858   -0.2827    0.0368 H   0  0  0  0  0  0  0  0  0  0  0  0
    2.1398   -0.5508    1.4378 H   0  0  0  0  0  0  0  0  0  0  0  0
    0.3959    1.9398    0.9785 H   0  0  0  0  0  0  0  0  0  0  0  0
   -1.3379    1.4245    1.1555 H   0  0  0  0  0  0  0  0  0  0  0  0
   -2.0668    0.5191   -1.2220 H   0  0  0  0  0  0  0  0  0  0  0  0
   -0.5277    0.4982   -2.2914 H   0  0  0  0  0  0  0  0  0  0  0  0
  1  2  1  0
  2  3  1  0
  3  4  1  0
  4  5  1  0
  5  6  1  0
  3  7  1  0
  7  8  1  0
  8  9  1  0
  9  3  1  0
  6  4  1  0
  1 10  1  0
  2 11  1  0
  2 12  1  0
  4 13  1  0
  5 14  1  0
  5 15  1  0
  7 16  1  0
  7 17  1  0
  9 18  1  0
  9 19  1  0
M  END
