
     RDKit          3D

 21 22  0  0  0  0  0  0  0  0999 V2000
   -1.4192    0.8115    1.8136 O   0  0  0  0  0  0  0  0  0  0  0  0
   -1.5387    0.6646    0.4283 C   0  0  0  0  0  0  0  0  0  0  0  0
   -0.7242   -0.5672    0.0596 C   0  0  0  0  0  0  0  0  0  0  0  0
    0.5929   -0.4923    0.3749 O   0  0  0  0  0  0  0  0  0  0  0  0
    1.3141    0.5114   -0.1948 C   0  0  0  0  0  0  0  0  0  0  0  0
    2.1671    1.2949    0.8266 C   0  0  0  0  0  0  0  0  0  0  0  0
    2.7582    0.5554   -0.3365 C   0  0  0  0  0  0  0  0  0  0  0  0
   -1.3153   -1.4856   -0.9154 C   0  0  0  0  0  0  0  0  0  0  0  0
   -1.3866   -1.8814    0.5202 C   0  0  0  0  0  0  0  0  0  0  0  0
   -2.2728    1.0347    2.2163 H   0  0  0  0  0  0  0  0  0  0  0  0
   -2.6170    0.5243    0.2087 H   0  0  0  0  0  0  0  0  0  0  0  0
   -1.2113    1.5583   -0.1176 H   0  0  0  0  0  0  0  0  0  0  0  0
    0.7116    1.1746   -0.8764 H   0  0  0  0  0  0  0  0  0  0  0  0
    2.3274    0.8473    1.8161 H   0  0  0  0  0  0  0  0  0  0  0  0
    2.0970    2.3949    0.7976 H   0  0  0  0  0  0  0  0  0  0  0  0
    3.4352   -0.2882   -0.0985 H   0  0  0  0  0  0  0  0  0  0  0  0
    3.1850    1.2195   -1.1215 H   0  0  0  0  0  0  0  0  0  0  0  0
   -2.2864   -1.1959   -1.3624 H   0  0  0  0  0  0  0  0  0  0  0  0
   -0.7288   -2.1620   -1.5592 H   0  0  0  0  0  0  0  0  0  0  0  0
   -0.7388   -2.6961    0.8686 H   0  0  0  0  0  0  0  0  0  0  0  0
   -2.3494   -1.8226    1.0430 H   0  0  0  0  0  0  0  0  0  0  0  0
  1  2  1  0
  2  3  1  0
  3  4  1  0
  4  5  1  0
  5  6  1  0
  6  7  1  0
  3  8  1  0
  8  9  1  0
  9  3  1  0
  7  5  1  0
  1 10  1  0
  2 11  1  0
  2 12  1  0
  5 13  1  0
  6 14  1  0
  6 15  1  0
  7 16  1  0
  7 17  1  0
  8 18  1  0
  8 19  1  0
  9 20  1  0
  9 21  1  0
M  END
