
     RDKit          3D

 21 22  0  0  0  0  0  0  0  0999 V2000
   -3.5741   -0.6736    0.1127 O   0  0  0  0  0  0  0  0  0  0  0  0
   -2.5409    0.2034    0.3299 C   0  0  0  0  0  0  0  0  0  0  0  0
   -1.2491   -0.4847    0.6975 C   0  0  0  0  0  0  0  0  0  0  0  0
   -0.4597   -1.0746   -0.4127 C   0  0  0  0  0  0  0  0  0  0  0  0
    0.1226    0.2948   -0.4300 C   0  0  0  0  0  0  0  0  0  0  0  0
    1.6027    0.3806   -0.7078 C   0  0  0  0  0  0  0  0  0  0  0  0
    2.6020   -0.2643    0.1514 C   0  0  0  0  0  0  0  0  0  0  0  0
    2.3994    1.1878    0.3413 C   0  0  0  0  0  0  0  0  0  0  0  0
   -0.2272    0.4376    0.9093 O   0  0  0  0  0  0  0  0  0  0  0  0
   -3.7487   -0.8768   -0.8379 H   0  0  0  0  0  0  0  0  0  0  0  0
   -2.8276    0.8252    1.2260 H   0  0  0  0  0  0  0  0  0  0  0  0
   -2.3666    0.9232   -0.4835 H   0  0  0  0  0  0  0  0  0  0  0  0
   -1.3074   -1.1665    1.5577 H   0  0  0  0  0  0  0  0  0  0  0  0
   -1.0053   -1.4023   -1.3123 H   0  0  0  0  0  0  0  0  0  0  0  0
    0.2206   -1.8718   -0.0756 H   0  0  0  0  0  0  0  0  0  0  0  0
   -0.4220    0.9890   -1.0906 H   0  0  0  0  0  0  0  0  0  0  0  0
    1.8655    0.5960   -1.7630 H   0  0  0  0  0  0  0  0  0  0  0  0
    3.5776   -0.5450   -0.3315 H   0  0  0  0  0  0  0  0  0  0  0  0
    2.3312   -0.9694    0.9659 H   0  0  0  0  0  0  0  0  0  0  0  0
    3.1376    1.9299   -0.0652 H   0  0  0  0  0  0  0  0  0  0  0  0
    1.8694    1.5615    1.2186 H   0  0  0  0  0  0  0  0  0  0  0  0
  1  2  1  0
  2  3  1  0
  3  4  1  0
  4  5  1  0
  5  6  1  0
  6  7  1  0
  7  8  1  0
  5  9  1  0
  9  3  1  0
  8  6  1  0
  1 10  1  0
  2 11  1  0
  2 12  1  0
  3 13  1  0
  4 14  1  0
  4 15  1  0
  5 16  1  0
  6 17  1  0
  7 18  1  0
  7 19  1  0
  8 20  1  0
  8 21  1  0
M  END
