
     RDKit          3D

 19 20  0  0  0  0  0  0  0  0999 V2000
    2.7896    0.3288    0.2141 O   0  0  0  0  0  0  0  0  0  0  0  0
    1.5794    0.9432    0.0411 C   0  0  0  0  0  0  0  0  0  0  0  0
    0.4593   -0.0125   -0.2598 C   0  0  0  0  0  0  0  0  0  0  0  0
    0.6610   -0.7355   -1.3955 O   0  0  0  0  0  0  0  0  0  0  0  0
    0.0544   -0.8710    0.9581 C   0  0  0  0  0  0  0  0  0  0  0  0
   -1.2057   -0.9970    0.1404 C   0  0  0  0  0  0  0  0  0  0  0  0
   -2.1919   -0.0168   -0.1709 C   0  0  0  0  0  0  0  0  0  0  0  0
   -0.9062    0.5553    0.0031 C   0  0  0  0  0  0  0  0  0  0  0  0
   -0.8084    1.2425    1.2484 O   0  0  0  0  0  0  0  0  0  0  0  0
    2.8804   -0.5323   -0.2716 H   0  0  0  0  0  0  0  0  0  0  0  0
    1.3052    1.5463    0.9543 H   0  0  0  0  0  0  0  0  0  0  0  0
    1.6251    1.6829   -0.7838 H   0  0  0  0  0  0  0  0  0  0  0  0
    1.1915   -1.5485   -1.1537 H   0  0  0  0  0  0  0  0  0  0  0  0
    0.0116   -0.3516    1.9035 H   0  0  0  0  0  0  0  0  0  0  0  0
    0.6100   -1.8080    1.0518 H   0  0  0  0  0  0  0  0  0  0  0  0
   -0.9270   -1.6060   -0.7797 H   0  0  0  0  0  0  0  0  0  0  0  0
   -2.6516    0.1000   -1.2004 H   0  0  0  0  0  0  0  0  0  0  0  0
   -3.0343    0.0748    0.5819 H   0  0  0  0  0  0  0  0  0  0  0  0
   -1.4424    2.0053    1.1565 H   0  0  0  0  0  0  0  0  0  0  0  0
  1  2  1  0
  2  3  1  0
  3  4  1  0
  3  5  1  0
  5  6  1  0
  6  7  1  0
  7  8  1  0
  8  9  1  0
  8  3  1  0
  8  6  1  0
  1 10  1  0
  2 11  1  0
  2 12  1  0
  4 13  1  0
  5 14  1  0
  5 15  1  0
  6 16  1  0
  7 17  1  0
  7 18  1  0
  9 19  1  0
M  END
