
     RDKit          3D

 23 23  0  0  0  0  0  0  0  0999 V2000
   -2.9640    1.4100    0.1690 O   0  0  0  0  0  0  0  0  0  0  0  0
   -2.4150    0.1999   -0.2833 C   0  0  0  0  0  0  0  0  0  0  0  0
   -1.1818   -0.1703    0.4980 C   0  0  0  0  0  0  0  0  0  0  0  0
   -0.6394   -1.4614   -0.0221 C   0  0  0  0  0  0  0  0  0  0  0  0
    0.8390   -1.2402   -0.3135 C   0  0  0  0  0  0  0  0  0  0  0  0
    1.1551   -0.0514    0.5359 C   0  0  0  0  0  0  0  0  0  0  0  0
    2.4385    0.6340    0.1717 C   0  0  0  0  0  0  0  0  0  0  0  0
    2.4794    1.1128   -1.1147 O   0  0  0  0  0  0  0  0  0  0  0  0
   -0.0541    0.8368    0.2567 C   0  0  0  0  0  0  0  0  0  0  0  0
   -3.9136    1.2831    0.4275 H   0  0  0  0  0  0  0  0  0  0  0  0
   -3.1375   -0.6146   -0.2002 H   0  0  0  0  0  0  0  0  0  0  0  0
   -2.1169    0.3213   -1.3432 H   0  0  0  0  0  0  0  0  0  0  0  0
   -1.3680   -0.1766    1.5942 H   0  0  0  0  0  0  0  0  0  0  0  0
   -0.6633   -2.2702    0.7622 H   0  0  0  0  0  0  0  0  0  0  0  0
   -1.1834   -1.8589   -0.8879 H   0  0  0  0  0  0  0  0  0  0  0  0
    0.9489   -0.9395   -1.3973 H   0  0  0  0  0  0  0  0  0  0  0  0
    1.4452   -2.1295   -0.0842 H   0  0  0  0  0  0  0  0  0  0  0  0
    1.2158   -0.3380    1.6004 H   0  0  0  0  0  0  0  0  0  0  0  0
    3.2624   -0.0667    0.3561 H   0  0  0  0  0  0  0  0  0  0  0  0
    2.5601    1.4939    0.8667 H   0  0  0  0  0  0  0  0  0  0  0  0
    3.4539    1.2652   -1.3348 H   0  0  0  0  0  0  0  0  0  0  0  0
   -0.0490    1.0594   -0.8158 H   0  0  0  0  0  0  0  0  0  0  0  0
   -0.1125    1.7009    0.9115 H   0  0  0  0  0  0  0  0  0  0  0  0
  1  2  1  0
  2  3  1  0
  3  4  1  0
  4  5  1  0
  5  6  1  0
  6  7  1  0
  7  8  1  0
  6  9  1  0
  9  3  1  0
  1 10  1  0
  2 11  1  0
  2 12  1  0
  3 13  1  0
  4 14  1  0
  4 15  1  0
  5 16  1  0
  5 17  1  0
  6 18  1  0
  7 19  1  0
  7 20  1  0
  8 21  1  0
  9 22  1  0
  9 23  1  0
M  END
