
     RDKit          3D

 21 22  0  0  0  0  0  0  0  0999 V2000
    2.3428   -1.2908    0.4911 O   0  0  0  0  0  0  0  0  0  0  0  0
    1.5378   -0.3200    1.0837 C   0  0  0  0  0  0  0  0  0  0  0  0
    0.9979    0.5910    0.0285 C   0  0  0  0  0  0  0  0  0  0  0  0
    0.1572   -0.0454   -1.0357 C   0  0  0  0  0  0  0  0  0  0  0  0
   -0.7750   -1.1064   -0.5018 C   0  0  0  0  0  0  0  0  0  0  0  0
   -1.6164   -0.5409    0.6115 C   0  0  0  0  0  0  0  0  0  0  0  0
   -1.0717    0.5450    1.2366 O   0  0  0  0  0  0  0  0  0  0  0  0
   -0.2740    1.3384    0.4501 C   0  0  0  0  0  0  0  0  0  0  0  0
   -0.6706    1.2500   -1.0271 C   0  0  0  0  0  0  0  0  0  0  0  0
    2.1008   -1.4413   -0.4502 H   0  0  0  0  0  0  0  0  0  0  0  0
    0.7809   -0.7676    1.7304 H   0  0  0  0  0  0  0  0  0  0  0  0
    2.2345    0.2997    1.7184 H   0  0  0  0  0  0  0  0  0  0  0  0
    1.7353    1.2671   -0.3970 H   0  0  0  0  0  0  0  0  0  0  0  0
    0.6167   -0.2342   -2.0038 H   0  0  0  0  0  0  0  0  0  0  0  0
   -1.4722   -1.3614   -1.3327 H   0  0  0  0  0  0  0  0  0  0  0  0
   -0.2217   -2.0042   -0.2183 H   0  0  0  0  0  0  0  0  0  0  0  0
   -1.7668   -1.3718    1.3475 H   0  0  0  0  0  0  0  0  0  0  0  0
   -2.6528   -0.2865    0.2603 H   0  0  0  0  0  0  0  0  0  0  0  0
   -0.0864    2.3362    0.8263 H   0  0  0  0  0  0  0  0  0  0  0  0
   -1.7363    1.1122   -1.2115 H   0  0  0  0  0  0  0  0  0  0  0  0
   -0.1601    2.0310   -1.6062 H   0  0  0  0  0  0  0  0  0  0  0  0
  1  2  1  0
  2  3  1  0
  3  4  1  0
  4  5  1  0
  5  6  1  0
  6  7  1  0
  7  8  1  0
  8  9  1  0
  8  3  1  0
  9  4  1  0
  1 10  1  0
  2 11  1  0
  2 12  1  0
  3 13  1  0
  4 14  1  0
  5 15  1  0
  5 16  1  0
  6 17  1  0
  6 18  1  0
  8 19  1  0
  9 20  1  0
  9 21  1  0
M  END
