
     RDKit          3D

 19 21  0  0  0  0  0  0  0  0999 V2000
    2.8609   -0.2723   -0.1490 O   0  0  0  0  0  0  0  0  0  0  0  0
    1.7166   -0.0114   -0.9064 C   0  0  0  0  0  0  0  0  0  0  0  0
    0.4651   -0.1951   -0.1883 C   0  0  0  0  0  0  0  0  0  0  0  0
    0.0510    0.5286    1.0291 C   0  0  0  0  0  0  0  0  0  0  0  0
   -1.2536    1.1814    0.5503 C   0  0  0  0  0  0  0  0  0  0  0  0
   -1.8565    0.1172   -0.3133 C   0  0  0  0  0  0  0  0  0  0  0  0
   -0.7480   -0.8446   -0.6904 C   0  0  0  0  0  0  0  0  0  0  0  0
    0.0072   -1.3806    0.5073 C   0  0  0  0  0  0  0  0  0  0  0  0
   -0.2072   -0.6924    1.6866 O   0  0  0  0  0  0  0  0  0  0  0  0
    2.8285    0.2269    0.7162 H   0  0  0  0  0  0  0  0  0  0  0  0
    1.8036    1.0227   -1.3065 H   0  0  0  0  0  0  0  0  0  0  0  0
    1.7549   -0.6862   -1.7872 H   0  0  0  0  0  0  0  0  0  0  0  0
    0.7485    1.1965    1.5283 H   0  0  0  0  0  0  0  0  0  0  0  0
   -1.8941    1.4551    1.4030 H   0  0  0  0  0  0  0  0  0  0  0  0
   -0.9605    2.0568   -0.0657 H   0  0  0  0  0  0  0  0  0  0  0  0
   -2.6116   -0.4251    0.3091 H   0  0  0  0  0  0  0  0  0  0  0  0
   -2.3879    0.4933   -1.1897 H   0  0  0  0  0  0  0  0  0  0  0  0
   -0.8001   -1.4146   -1.6138 H   0  0  0  0  0  0  0  0  0  0  0  0
    0.4830   -2.3563    0.4804 H   0  0  0  0  0  0  0  0  0  0  0  0
  1  2  1  0
  2  3  1  0
  3  4  1  0
  4  5  1  0
  5  6  1  0
  6  7  1  0
  7  8  1  0
  8  9  1  0
  7  3  1  0
  8  3  1  0
  9  4  1  0
  1 10  1  0
  2 11  1  0
  2 12  1  0
  4 13  1  0
  5 14  1  0
  5 15  1  0
  6 16  1  0
  6 17  1  0
  7 18  1  0
  8 19  1  0
M  END
