
     RDKit          3D

 19 20  0  0  0  0  0  0  0  0999 V2000
   -1.8414    1.5974    0.5401 O   0  0  0  0  0  0  0  0  0  0  0  0
   -2.2302    0.2887    0.3660 C   0  0  0  0  0  0  0  0  0  0  0  0
   -1.4370   -0.4126   -0.7324 C   0  0  0  0  0  0  0  0  0  0  0  0
    0.0158   -0.4128   -0.3924 C   0  0  0  0  0  0  0  0  0  0  0  0
    0.8172   -1.4534   -0.2182 C   0  0  0  0  0  0  0  0  0  0  0  0
    2.1867   -1.0419    0.1073 C   0  0  0  0  0  0  0  0  0  0  0  0
    2.8563   -0.4046   -0.9359 O   0  0  0  0  0  0  0  0  0  0  0  0
    2.2288    0.4654   -0.0735 C   0  0  0  0  0  0  0  0  0  0  0  0
    0.7885    0.8135   -0.1941 C   0  0  0  0  0  0  0  0  0  0  0  0
   -1.7628    1.8407    1.4961 H   0  0  0  0  0  0  0  0  0  0  0  0
   -3.2989    0.2106    0.1528 H   0  0  0  0  0  0  0  0  0  0  0  0
   -2.0612   -0.2564    1.3384 H   0  0  0  0  0  0  0  0  0  0  0  0
   -1.5523    0.2243   -1.6405 H   0  0  0  0  0  0  0  0  0  0  0  0
   -1.8475   -1.4111   -0.8876 H   0  0  0  0  0  0  0  0  0  0  0  0
    0.4832   -2.4800   -0.3093 H   0  0  0  0  0  0  0  0  0  0  0  0
    2.7328   -1.4332    0.9643 H   0  0  0  0  0  0  0  0  0  0  0  0
    2.8929    1.0385    0.6043 H   0  0  0  0  0  0  0  0  0  0  0  0
    0.4574    1.2561    0.7894 H   0  0  0  0  0  0  0  0  0  0  0  0
    0.5717    1.5706   -0.9747 H   0  0  0  0  0  0  0  0  0  0  0  0
  1  2  1  0
  2  3  1  0
  3  4  1  0
  4  5  2  0
  5  6  1  0
  6  7  1  0
  7  8  1  0
  8  9  1  0
  9  4  1  0
  8  6  1  0
  1 10  1  0
  2 11  1  0
  2 12  1  0
  3 13  1  0
  3 14  1  0
  5 15  1  0
  6 16  1  0
  8 17  1  0
  9 18  1  0
  9 19  1  0
M  END
