
     RDKit          3D

 23 23  0  0  0  0  0  0  0  0999 V2000
    4.1646   -0.0382    0.2699 O   0  0  0  0  0  0  0  0  0  0  0  0
    2.9701    0.6483    0.1883 C   0  0  0  0  0  0  0  0  0  0  0  0
    1.7758   -0.2869    0.0448 C   0  0  0  0  0  0  0  0  0  0  0  0
    0.5379    0.5530   -0.0349 C   0  0  0  0  0  0  0  0  0  0  0  0
   -0.7182   -0.2414   -0.1785 C   0  0  0  0  0  0  0  0  0  0  0  0
   -1.9164    0.7117   -0.2504 C   0  0  0  0  0  0  0  0  0  0  0  0
   -2.6817   -0.3494    0.5489 C   0  0  0  0  0  0  0  0  0  0  0  0
   -3.2081   -1.2768   -0.3559 O   0  0  0  0  0  0  0  0  0  0  0  0
   -1.3154   -0.7795    1.1009 C   0  0  0  0  0  0  0  0  0  0  0  0
    4.0046   -0.9253    0.6832 H   0  0  0  0  0  0  0  0  0  0  0  0
    2.9298    1.3430   -0.6992 H   0  0  0  0  0  0  0  0  0  0  0  0
    2.7828    1.2911    1.0780 H   0  0  0  0  0  0  0  0  0  0  0  0
    1.7501   -0.8827    0.9953 H   0  0  0  0  0  0  0  0  0  0  0  0
    1.9436   -0.9150   -0.8329 H   0  0  0  0  0  0  0  0  0  0  0  0
    0.6188    1.2049   -0.9492 H   0  0  0  0  0  0  0  0  0  0  0  0
    0.4784    1.2210    0.8269 H   0  0  0  0  0  0  0  0  0  0  0  0
   -0.7063   -1.0155   -0.9437 H   0  0  0  0  0  0  0  0  0  0  0  0
   -2.2977    0.8998   -1.2531 H   0  0  0  0  0  0  0  0  0  0  0  0
   -1.7407    1.5862    0.4039 H   0  0  0  0  0  0  0  0  0  0  0  0
   -3.3651    0.0385    1.3007 H   0  0  0  0  0  0  0  0  0  0  0  0
   -3.5859   -0.7567   -1.1147 H   0  0  0  0  0  0  0  0  0  0  0  0
   -1.3072   -1.8635    1.2255 H   0  0  0  0  0  0  0  0  0  0  0  0
   -1.1138   -0.1666    2.0042 H   0  0  0  0  0  0  0  0  0  0  0  0
  1  2  1  0
  2  3  1  0
  3  4  1  0
  4  5  1  0
  5  6  1  0
  6  7  1  0
  7  8  1  0
  7  9  1  0
  9  5  1  0
  1 10  1  0
  2 11  1  0
  2 12  1  0
  3 13  1  0
  3 14  1  0
  4 15  1  0
  4 16  1  0
  5 17  1  0
  6 18  1  0
  6 19  1  0
  7 20  1  0
  8 21  1  0
  9 22  1  0
  9 23  1  0
M  END
