
     RDKit          3D

 19 20  0  0  0  0  0  0  0  0999 V2000
    3.2796   -0.2496    0.5735 O   0  0  0  0  0  0  0  0  0  0  0  0
    2.1754   -0.6824   -0.1635 C   0  0  0  0  0  0  0  0  0  0  0  0
    0.9804    0.1315    0.2788 C   0  0  0  0  0  0  0  0  0  0  0  0
   -0.2796   -0.2119   -0.4175 C   0  0  0  0  0  0  0  0  0  0  0  0
   -0.4778   -0.1237   -1.7531 O   0  0  0  0  0  0  0  0  0  0  0  0
   -0.9547    0.9654   -1.1008 C   0  0  0  0  0  0  0  0  0  0  0  0
   -1.9581    0.9381   -0.0178 C   0  0  0  0  0  0  0  0  0  0  0  0
   -1.5368   -0.4764    0.4028 C   0  0  0  0  0  0  0  0  0  0  0  0
   -2.4155   -1.3930   -0.1950 O   0  0  0  0  0  0  0  0  0  0  0  0
    3.8108    0.4268    0.1085 H   0  0  0  0  0  0  0  0  0  0  0  0
    2.0441   -1.7554    0.0849 H   0  0  0  0  0  0  0  0  0  0  0  0
    2.3790   -0.5269   -1.2262 H   0  0  0  0  0  0  0  0  0  0  0  0
    0.8394   -0.1151    1.3728 H   0  0  0  0  0  0  0  0  0  0  0  0
    1.2035    1.2173    0.2657 H   0  0  0  0  0  0  0  0  0  0  0  0
   -0.3989    1.9020   -1.2481 H   0  0  0  0  0  0  0  0  0  0  0  0
   -3.0113    1.0545   -0.2595 H   0  0  0  0  0  0  0  0  0  0  0  0
   -1.6590    1.6446    0.8104 H   0  0  0  0  0  0  0  0  0  0  0  0
   -1.3736   -0.6047    1.4723 H   0  0  0  0  0  0  0  0  0  0  0  0
   -2.6470   -2.1409    0.3911 H   0  0  0  0  0  0  0  0  0  0  0  0
  1  2  1  0
  2  3  1  0
  3  4  1  0
  4  5  1  0
  5  6  1  0
  6  7  1  0
  7  8  1  0
  8  9  1  0
  6  4  1  0
  8  4  1  0
  1 10  1  0
  2 11  1  0
  2 12  1  0
  3 13  1  0
  3 14  1  0
  6 15  1  0
  7 16  1  0
  7 17  1  0
  8 18  1  0
  9 19  1  0
M  END
