
     RDKit          3D

 22 22  0  0  0  0  0  0  0  0999 V2000
   -3.9723    0.0283    0.2462 O   0  0  0  0  0  0  0  0  0  0  0  0
   -2.7885    0.1972   -0.4570 C   0  0  0  0  0  0  0  0  0  0  0  0
   -1.5899   -0.2865    0.3636 C   0  0  0  0  0  0  0  0  0  0  0  0
   -0.3553   -0.0651   -0.4763 C   0  0  0  0  0  0  0  0  0  0  0  0
    0.9002   -0.4981    0.2109 C   0  0  0  0  0  0  0  0  0  0  0  0
    2.1067   -0.2592   -0.6629 C   0  0  0  0  0  0  0  0  0  0  0  0
    2.8567    0.1460    0.6104 C   0  0  0  0  0  0  0  0  0  0  0  0
    1.4822    0.5069    1.1908 C   0  0  0  0  0  0  0  0  0  0  0  0
   -3.8734    0.1011    1.2147 H   0  0  0  0  0  0  0  0  0  0  0  0
   -2.6658    1.2952   -0.6196 H   0  0  0  0  0  0  0  0  0  0  0  0
   -2.8276   -0.3659   -1.3924 H   0  0  0  0  0  0  0  0  0  0  0  0
   -1.7050   -1.3568    0.5934 H   0  0  0  0  0  0  0  0  0  0  0  0
   -1.5354    0.2633    1.3279 H   0  0  0  0  0  0  0  0  0  0  0  0
   -0.4720   -0.6674   -1.3972 H   0  0  0  0  0  0  0  0  0  0  0  0
   -0.2997    0.9838   -0.7592 H   0  0  0  0  0  0  0  0  0  0  0  0
    0.9028   -1.5324    0.5883 H   0  0  0  0  0  0  0  0  0  0  0  0
    1.9636    0.6463   -1.2901 H   0  0  0  0  0  0  0  0  0  0  0  0
    2.5214   -1.1358   -1.1611 H   0  0  0  0  0  0  0  0  0  0  0  0
    3.5340    0.9995    0.4922 H   0  0  0  0  0  0  0  0  0  0  0  0
    3.2940   -0.7550    1.0740 H   0  0  0  0  0  0  0  0  0  0  0  0
    1.3478    0.2222    2.2456 H   0  0  0  0  0  0  0  0  0  0  0  0
    1.1756    1.5323    0.9774 H   0  0  0  0  0  0  0  0  0  0  0  0
  1  2  1  0
  2  3  1  0
  3  4  1  0
  4  5  1  0
  5  6  1  0
  6  7  1  0
  7  8  1  0
  8  5  1  0
  1  9  1  0
  2 10  1  0
  2 11  1  0
  3 12  1  0
  3 13  1  0
  4 14  1  0
  4 15  1  0
  5 16  1  0
  6 17  1  0
  6 18  1  0
  7 19  1  0
  7 20  1  0
  8 21  1  0
  8 22  1  0
M  END
