
     RDKit          3D

 21 22  0  0  0  0  0  0  0  0999 V2000
    3.2413    0.8193    0.0084 O   0  0  0  0  0  0  0  0  0  0  0  0
    2.7759   -0.4760   -0.2767 C   0  0  0  0  0  0  0  0  0  0  0  0
    1.4395   -0.2902   -0.9868 C   0  0  0  0  0  0  0  0  0  0  0  0
    0.4849    0.4571   -0.0555 C   0  0  0  0  0  0  0  0  0  0  0  0
    0.2917   -0.3371    1.1880 O   0  0  0  0  0  0  0  0  0  0  0  0
   -0.7204   -0.0002    0.3415 C   0  0  0  0  0  0  0  0  0  0  0  0
   -1.8622    0.8805    0.7835 C   0  0  0  0  0  0  0  0  0  0  0  0
   -2.7180    0.1760   -0.2762 C   0  0  0  0  0  0  0  0  0  0  0  0
   -1.6963   -0.9664   -0.2043 C   0  0  0  0  0  0  0  0  0  0  0  0
    2.8613    1.1577    0.8663 H   0  0  0  0  0  0  0  0  0  0  0  0
    3.4658   -1.0374   -0.8975 H   0  0  0  0  0  0  0  0  0  0  0  0
    2.5504   -0.9702    0.6930 H   0  0  0  0  0  0  0  0  0  0  0  0
    1.0518   -1.2839   -1.2533 H   0  0  0  0  0  0  0  0  0  0  0  0
    1.5446    0.2917   -1.9137 H   0  0  0  0  0  0  0  0  0  0  0  0
    0.8478    1.4927    0.1658 H   0  0  0  0  0  0  0  0  0  0  0  0
   -1.6249    1.9425    0.5182 H   0  0  0  0  0  0  0  0  0  0  0  0
   -2.1885    0.7069    1.8141 H   0  0  0  0  0  0  0  0  0  0  0  0
   -3.7249   -0.0872    0.0398 H   0  0  0  0  0  0  0  0  0  0  0  0
   -2.6039    0.6805   -1.2587 H   0  0  0  0  0  0  0  0  0  0  0  0
   -1.4305   -1.3935   -1.1907 H   0  0  0  0  0  0  0  0  0  0  0  0
   -1.9856   -1.7629    0.5319 H   0  0  0  0  0  0  0  0  0  0  0  0
  1  2  1  0
  2  3  1  0
  3  4  1  0
  4  5  1  0
  5  6  1  0
  6  7  1  0
  7  8  1  0
  8  9  1  0
  6  4  1  0
  9  6  1  0
  1 10  1  0
  2 11  1  0
  2 12  1  0
  3 13  1  0
  3 14  1  0
  4 15  1  0
  7 16  1  0
  7 17  1  0
  8 18  1  0
  8 19  1  0
  9 20  1  0
  9 21  1  0
M  END
