
     RDKit          3D

 21 22  0  0  0  0  0  0  0  0999 V2000
    3.8265   -0.2829   -0.1949 O   0  0  0  0  0  0  0  0  0  0  0  0
    2.5800   -0.0284   -0.7315 C   0  0  0  0  0  0  0  0  0  0  0  0
    1.5227   -0.6005    0.1849 C   0  0  0  0  0  0  0  0  0  0  0  0
    0.1286   -0.3541   -0.3488 C   0  0  0  0  0  0  0  0  0  0  0  0
   -0.9557   -0.8967    0.5143 C   0  0  0  0  0  0  0  0  0  0  0  0
   -2.3547   -0.6956    0.0465 C   0  0  0  0  0  0  0  0  0  0  0  0
   -2.1508    0.7971    0.1815 C   0  0  0  0  0  0  0  0  0  0  0  0
   -2.5386    1.4887   -0.9528 O   0  0  0  0  0  0  0  0  0  0  0  0
   -0.6893    0.6267    0.3943 C   0  0  0  0  0  0  0  0  0  0  0  0
    4.0953    0.3840    0.4807 H   0  0  0  0  0  0  0  0  0  0  0  0
    2.4429   -0.4422   -1.7313 H   0  0  0  0  0  0  0  0  0  0  0  0
    2.4438    1.0873   -0.7047 H   0  0  0  0  0  0  0  0  0  0  0  0
    1.6611   -1.7051    0.3187 H   0  0  0  0  0  0  0  0  0  0  0  0
    1.6723   -0.1432    1.1830 H   0  0  0  0  0  0  0  0  0  0  0  0
    0.0354   -0.4910   -1.4379 H   0  0  0  0  0  0  0  0  0  0  0  0
   -0.7254   -1.3337    1.4968 H   0  0  0  0  0  0  0  0  0  0  0  0
   -2.4646   -1.0440   -1.0070 H   0  0  0  0  0  0  0  0  0  0  0  0
   -3.1435   -1.1118    0.7163 H   0  0  0  0  0  0  0  0  0  0  0  0
   -2.6636    1.1599    1.1015 H   0  0  0  0  0  0  0  0  0  0  0  0
   -2.4888    2.4660   -0.7892 H   0  0  0  0  0  0  0  0  0  0  0  0
   -0.2338    1.1195    1.2797 H   0  0  0  0  0  0  0  0  0  0  0  0
  1  2  1  0
  2  3  1  0
  3  4  1  0
  4  5  1  0
  5  6  1  0
  6  7  1  0
  7  8  1  0
  7  9  1  0
  9  4  1  0
  9  5  1  0
  1 10  1  0
  2 11  1  0
  2 12  1  0
  3 13  1  0
  3 14  1  0
  4 15  1  0
  5 16  1  0
  6 17  1  0
  6 18  1  0
  7 19  1  0
  8 20  1  0
  9 21  1  0
M  END
