
     RDKit          3D

 20 20  0  0  0  0  0  0  0  0999 V2000
   -2.1665    0.9291    0.9469 O   0  0  0  0  0  0  0  0  0  0  0  0
   -2.3026    0.0393   -0.1162 C   0  0  0  0  0  0  0  0  0  0  0  0
   -0.9299   -0.2097   -0.7559 C   0  0  0  0  0  0  0  0  0  0  0  0
    0.0211   -0.7948    0.2488 C   0  0  0  0  0  0  0  0  0  0  0  0
    1.3749   -1.0485   -0.3712 C   0  0  0  0  0  0  0  0  0  0  0  0
    1.7068    0.3889   -0.0448 C   0  0  0  0  0  0  0  0  0  0  0  0
    3.0105    0.5882    0.4006 O   0  0  0  0  0  0  0  0  0  0  0  0
    0.6883    0.2866    1.0676 C   0  0  0  0  0  0  0  0  0  0  0  0
   -2.9790    1.4735    1.0267 H   0  0  0  0  0  0  0  0  0  0  0  0
   -2.6986   -0.9110    0.3038 H   0  0  0  0  0  0  0  0  0  0  0  0
   -3.0085    0.4164   -0.8685 H   0  0  0  0  0  0  0  0  0  0  0  0
   -1.0429   -0.8230   -1.6723 H   0  0  0  0  0  0  0  0  0  0  0  0
   -0.6035    0.7935   -1.0952 H   0  0  0  0  0  0  0  0  0  0  0  0
   -0.3829   -1.6362    0.8466 H   0  0  0  0  0  0  0  0  0  0  0  0
    1.9513   -1.7387    0.2803 H   0  0  0  0  0  0  0  0  0  0  0  0
    1.3688   -1.3018   -1.4408 H   0  0  0  0  0  0  0  0  0  0  0  0
    1.3902    1.0476   -0.8730 H   0  0  0  0  0  0  0  0  0  0  0  0
    3.3121    1.4428    0.0087 H   0  0  0  0  0  0  0  0  0  0  0  0
    0.1302    1.2133    1.2206 H   0  0  0  0  0  0  0  0  0  0  0  0
    1.1601   -0.1556    1.9669 H   0  0  0  0  0  0  0  0  0  0  0  0
  1  2  1  0
  2  3  1  0
  3  4  1  0
  4  5  1  0
  5  6  1  0
  6  7  1  0
  6  8  1  0
  8  4  1  0
  1  9  1  0
  2 10  1  0
  2 11  1  0
  3 12  1  0
  3 13  1  0
  4 14  1  0
  5 15  1  0
  5 16  1  0
  6 17  1  0
  7 18  1  0
  8 19  1  0
  8 20  1  0
M  END
