
     RDKit          3D

 21 23  0  0  0  0  0  0  0  0999 V2000
   -3.7032    0.3910    0.4702 O   0  0  0  0  0  0  0  0  0  0  0  0
   -2.3882    0.7521    0.2043 C   0  0  0  0  0  0  0  0  0  0  0  0
   -1.7577   -0.3839   -0.5635 C   0  0  0  0  0  0  0  0  0  0  0  0
   -0.2954   -0.0623   -0.8984 C   0  0  0  0  0  0  0  0  0  0  0  0
    0.5204    0.1620    0.3578 C   0  0  0  0  0  0  0  0  0  0  0  0
    2.0237   -0.0320    0.4981 C   0  0  0  0  0  0  0  0  0  0  0  0
    2.8581    0.5683   -0.5391 C   0  0  0  0  0  0  0  0  0  0  0  0
    2.1402   -0.6774   -0.8599 C   0  0  0  0  0  0  0  0  0  0  0  0
    0.7005   -0.9188   -0.5175 C   0  0  0  0  0  0  0  0  0  0  0  0
   -4.0940   -0.1111   -0.2691 H   0  0  0  0  0  0  0  0  0  0  0  0
   -2.3525    1.6435   -0.4322 H   0  0  0  0  0  0  0  0  0  0  0  0
   -1.8206    0.8639    1.1579 H   0  0  0  0  0  0  0  0  0  0  0  0
   -1.7771   -1.2743    0.1126 H   0  0  0  0  0  0  0  0  0  0  0  0
   -2.3134   -0.5984   -1.4778 H   0  0  0  0  0  0  0  0  0  0  0  0
   -0.2172    0.6265   -1.7563 H   0  0  0  0  0  0  0  0  0  0  0  0
    0.3450    1.1645    0.5973 H   0  0  0  0  0  0  0  0  0  0  0  0
    2.4092   -0.6537    1.3206 H   0  0  0  0  0  0  0  0  0  0  0  0
    3.9566    0.5097   -0.3836 H   0  0  0  0  0  0  0  0  0  0  0  0
    2.5482    1.5466   -0.9635 H   0  0  0  0  0  0  0  0  0  0  0  0
    2.7435   -1.5671   -1.0225 H   0  0  0  0  0  0  0  0  0  0  0  0
    0.4740   -1.9491   -0.1076 H   0  0  0  0  0  0  0  0  0  0  0  0
  1  2  1  0
  2  3  1  0
  3  4  1  0
  4  5  1  0
  5  6  1  0
  6  7  1  0
  7  8  1  0
  8  9  1  0
  9  4  1  0
  9  5  1  0
  8  6  1  0
  1 10  1  0
  2 11  1  0
  2 12  1  0
  3 13  1  0
  3 14  1  0
  4 15  1  0
  5 16  1  0
  6 17  1  0
  7 18  1  0
  7 19  1  0
  8 20  1  0
  9 21  1  0
M  END
