
     RDKit          3D

 21 21  0  0  0  0  0  0  0  0999 V2000
    2.9033    0.6983    1.1736 O   0  0  0  0  0  0  0  0  0  0  0  0
    2.7740   -0.4111    0.3455 C   0  0  0  0  0  0  0  0  0  0  0  0
    1.4365   -0.4143   -0.3544 C   0  0  0  0  0  0  0  0  0  0  0  0
    0.2844   -0.4470    0.6166 C   0  0  0  0  0  0  0  0  0  0  0  0
   -1.0010   -0.4476   -0.1830 C   0  0  0  0  0  0  0  0  0  0  0  0
   -2.2164   -0.4803    0.7291 C   0  0  0  0  0  0  0  0  0  0  0  0
   -3.1469    0.2376   -0.0215 O   0  0  0  0  0  0  0  0  0  0  0  0
   -2.3520    1.3109   -0.4602 C   0  0  0  0  0  0  0  0  0  0  0  0
   -1.1756    0.6996   -0.9138 O   0  0  0  0  0  0  0  0  0  0  0  0
    3.1665    1.4971    0.6342 H   0  0  0  0  0  0  0  0  0  0  0  0
    2.9963   -1.3628    0.8423 H   0  0  0  0  0  0  0  0  0  0  0  0
    3.5443   -0.2778   -0.4647 H   0  0  0  0  0  0  0  0  0  0  0  0
    1.4091   -1.3245   -1.0009 H   0  0  0  0  0  0  0  0  0  0  0  0
    1.3463    0.5022   -0.9498 H   0  0  0  0  0  0  0  0  0  0  0  0
    0.3367   -1.3109    1.3022 H   0  0  0  0  0  0  0  0  0  0  0  0
    0.3313    0.5024    1.2008 H   0  0  0  0  0  0  0  0  0  0  0  0
   -1.0532   -1.3169   -0.8574 H   0  0  0  0  0  0  0  0  0  0  0  0
   -2.6152   -1.5050    0.8619 H   0  0  0  0  0  0  0  0  0  0  0  0
   -2.0590    0.0615    1.6712 H   0  0  0  0  0  0  0  0  0  0  0  0
   -2.0620    1.8716    0.4643 H   0  0  0  0  0  0  0  0  0  0  0  0
   -2.8475    1.9171   -1.2123 H   0  0  0  0  0  0  0  0  0  0  0  0
  1  2  1  0
  2  3  1  0
  3  4  1  0
  4  5  1  0
  5  6  1  0
  6  7  1  0
  7  8  1  0
  8  9  1  0
  9  5  1  0
  1 10  1  0
  2 11  1  0
  2 12  1  0
  3 13  1  0
  3 14  1  0
  4 15  1  0
  4 16  1  0
  5 17  1  0
  6 18  1  0
  6 19  1  0
  8 20  1  0
  8 21  1  0
M  END
