
     RDKit          3D

 23 23  0  0  0  0  0  0  0  0999 V2000
   -1.1988    1.3815   -0.8382 O   0  0  0  0  0  0  0  0  0  0  0  0
   -2.2839    0.5283   -0.7393 C   0  0  0  0  0  0  0  0  0  0  0  0
   -2.0281   -0.6087    0.1966 C   0  0  0  0  0  0  0  0  0  0  0  0
   -0.8929   -1.4747   -0.1758 C   0  0  0  0  0  0  0  0  0  0  0  0
    0.4467   -0.8806   -0.2677 C   0  0  0  0  0  0  0  0  0  0  0  0
    0.9979   -0.2633    0.9586 C   0  0  0  0  0  0  0  0  0  0  0  0
    2.3890    0.2843    0.6218 C   0  0  0  0  0  0  0  0  0  0  0  0
    2.4884    1.3162   -0.4423 C   0  0  0  0  0  0  0  0  0  0  0  0
    2.6690    1.6025    0.9973 O   0  0  0  0  0  0  0  0  0  0  0  0
   -1.3765    2.1696   -0.2689 H   0  0  0  0  0  0  0  0  0  0  0  0
   -3.1796    1.1170   -0.4723 H   0  0  0  0  0  0  0  0  0  0  0  0
   -2.5181    0.0808   -1.7408 H   0  0  0  0  0  0  0  0  0  0  0  0
   -1.9960   -0.2042    1.2244 H   0  0  0  0  0  0  0  0  0  0  0  0
   -2.9555   -1.2548    0.1729 H   0  0  0  0  0  0  0  0  0  0  0  0
   -1.1341   -1.9232   -1.1850 H   0  0  0  0  0  0  0  0  0  0  0  0
   -0.8815   -2.3696    0.5071 H   0  0  0  0  0  0  0  0  0  0  0  0
    1.1596   -1.7088   -0.5622 H   0  0  0  0  0  0  0  0  0  0  0  0
    0.5319   -0.1547   -1.1026 H   0  0  0  0  0  0  0  0  0  0  0  0
    0.3717    0.5949    1.2606 H   0  0  0  0  0  0  0  0  0  0  0  0
    1.1604   -0.9654    1.7988 H   0  0  0  0  0  0  0  0  0  0  0  0
    3.2401   -0.4370    0.6588 H   0  0  0  0  0  0  0  0  0  0  0  0
    1.5606    1.7722   -0.8574 H   0  0  0  0  0  0  0  0  0  0  0  0
    3.4296    1.3974   -1.0228 H   0  0  0  0  0  0  0  0  0  0  0  0
  1  2  1  0
  2  3  1  0
  3  4  1  0
  4  5  1  0
  5  6  1  0
  6  7  1  0
  7  8  1  0
  8  9  1  0
  9  7  1  0
  1 10  1  0
  2 11  1  0
  2 12  1  0
  3 13  1  0
  3 14  1  0
  4 15  1  0
  4 16  1  0
  5 17  1  0
  5 18  1  0
  6 19  1  0
  6 20  1  0
  7 21  1  0
  8 22  1  0
  8 23  1  0
M  END
