
     RDKit          3D

 23 23  0  0  0  0  0  0  0  0999 V2000
    2.4856    1.7193   -0.2680 O   0  0  0  0  0  0  0  0  0  0  0  0
    2.7590    0.4354    0.1751 C   0  0  0  0  0  0  0  0  0  0  0  0
    1.4288   -0.2707    0.4354 C   0  0  0  0  0  0  0  0  0  0  0  0
    0.6836   -0.2880   -0.8681 C   0  0  0  0  0  0  0  0  0  0  0  0
   -0.6624   -0.9662   -0.7437 C   0  0  0  0  0  0  0  0  0  0  0  0
   -0.4735   -2.2884   -0.3272 O   0  0  0  0  0  0  0  0  0  0  0  0
   -1.4971   -0.2662    0.2731 C   0  0  0  0  0  0  0  0  0  0  0  0
   -1.8775    1.1563    0.1507 C   0  0  0  0  0  0  0  0  0  0  0  0
   -2.9161    0.0278   -0.0708 C   0  0  0  0  0  0  0  0  0  0  0  0
    3.2205    2.3571   -0.1152 H   0  0  0  0  0  0  0  0  0  0  0  0
    3.3855    0.4373    1.0756 H   0  0  0  0  0  0  0  0  0  0  0  0
    3.2697   -0.1204   -0.6564 H   0  0  0  0  0  0  0  0  0  0  0  0
    0.8976    0.2820    1.2317 H   0  0  0  0  0  0  0  0  0  0  0  0
    1.6430   -1.2943    0.8100 H   0  0  0  0  0  0  0  0  0  0  0  0
    0.5397    0.7646   -1.1859 H   0  0  0  0  0  0  0  0  0  0  0  0
    1.3307   -0.7879   -1.6167 H   0  0  0  0  0  0  0  0  0  0  0  0
   -1.1297   -1.0225   -1.7447 H   0  0  0  0  0  0  0  0  0  0  0  0
   -1.1418   -2.5631    0.3627 H   0  0  0  0  0  0  0  0  0  0  0  0
   -1.3273   -0.6268    1.3235 H   0  0  0  0  0  0  0  0  0  0  0  0
   -2.0158    1.7575    1.0799 H   0  0  0  0  0  0  0  0  0  0  0  0
   -1.6763    1.7516   -0.7516 H   0  0  0  0  0  0  0  0  0  0  0  0
   -3.7131   -0.0221    0.7108 H   0  0  0  0  0  0  0  0  0  0  0  0
   -3.2128   -0.1724   -1.1245 H   0  0  0  0  0  0  0  0  0  0  0  0
  1  2  1  0
  2  3  1  0
  3  4  1  0
  4  5  1  0
  5  6  1  0
  5  7  1  0
  7  8  1  0
  8  9  1  0
  9  7  1  0
  1 10  1  0
  2 11  1  0
  2 12  1  0
  3 13  1  0
  3 14  1  0
  4 15  1  0
  4 16  1  0
  5 17  1  0
  6 18  1  0
  7 19  1  0
  8 20  1  0
  8 21  1  0
  9 22  1  0
  9 23  1  0
M  END
