
     RDKit          3D

 17 17  0  0  0  0  0  0  0  0999 V2000
    2.4156   -0.5974    0.2322 O   0  0  0  0  0  0  0  0  0  0  0  0
    1.5521    0.1818    0.9906 C   0  0  0  0  0  0  0  0  0  0  0  0
    0.5674    0.9370    0.1094 C   0  0  0  0  0  0  0  0  0  0  0  0
   -0.2348   -0.0644   -0.6734 C   0  0  0  0  0  0  0  0  0  0  0  0
   -1.0381   -1.0381    0.1516 C   0  0  0  0  0  0  0  0  0  0  0  0
   -2.0445   -0.9157   -0.8264 O   0  0  0  0  0  0  0  0  0  0  0  0
   -1.6448    0.4393   -0.9139 C   0  0  0  0  0  0  0  0  0  0  0  0
    1.9287   -1.2514   -0.3255 H   0  0  0  0  0  0  0  0  0  0  0  0
    2.1614    0.9024    1.5718 H   0  0  0  0  0  0  0  0  0  0  0  0
    0.9664   -0.4667    1.6837 H   0  0  0  0  0  0  0  0  0  0  0  0
    1.1156    1.5749   -0.6044 H   0  0  0  0  0  0  0  0  0  0  0  0
   -0.1149    1.5535    0.7059 H   0  0  0  0  0  0  0  0  0  0  0  0
    0.2588   -0.5254   -1.5389 H   0  0  0  0  0  0  0  0  0  0  0  0
   -0.6280   -2.0394    0.2730 H   0  0  0  0  0  0  0  0  0  0  0  0
   -1.4259   -0.5498    1.0866 H   0  0  0  0  0  0  0  0  0  0  0  0
   -2.0137    0.9652   -0.0270 H   0  0  0  0  0  0  0  0  0  0  0  0
   -1.8213    0.8942   -1.8952 H   0  0  0  0  0  0  0  0  0  0  0  0
  1  2  1  0
  2  3  1  0
  3  4  1  0
  4  5  1  0
  5  6  1  0
  6  7  1  0
  7  4  1  0
  1  8  1  0
  2  9  1  0
  2 10  1  0
  3 11  1  0
  3 12  1  0
  4 13  1  0
  5 14  1  0
  5 15  1  0
  7 16  1  0
  7 17  1  0
M  END
