
     RDKit          3D

 20 21  0  0  0  0  0  0  0  0999 V2000
    2.1039    0.7615    1.0597 O   0  0  0  0  0  0  0  0  0  0  0  0
    2.3044   -0.1285    0.0080 C   0  0  0  0  0  0  0  0  0  0  0  0
    1.0676   -0.0926   -0.9038 C   0  0  0  0  0  0  0  0  0  0  0  0
   -0.0864   -0.4961   -0.0738 C   0  0  0  0  0  0  0  0  0  0  0  0
   -1.4449   -0.5726   -0.6441 C   0  0  0  0  0  0  0  0  0  0  0  0
   -1.9108   -0.5280    0.7906 C   0  0  0  0  0  0  0  0  0  0  0  0
   -0.8328    0.5408    0.6994 C   0  0  0  0  0  0  0  0  0  0  0  0
   -1.4974    0.9250   -0.5617 C   0  0  0  0  0  0  0  0  0  0  0  0
    2.7161    0.6176    1.8024 H   0  0  0  0  0  0  0  0  0  0  0  0
    3.1967    0.0836   -0.5877 H   0  0  0  0  0  0  0  0  0  0  0  0
    2.4176   -1.1329    0.4647 H   0  0  0  0  0  0  0  0  0  0  0  0
    1.2160   -0.7673   -1.7649 H   0  0  0  0  0  0  0  0  0  0  0  0
    0.9274    0.9389   -1.2776 H   0  0  0  0  0  0  0  0  0  0  0  0
    0.1240   -1.3645    0.6265 H   0  0  0  0  0  0  0  0  0  0  0  0
   -1.8094   -1.1521   -1.3734 H   0  0  0  0  0  0  0  0  0  0  0  0
   -1.5330   -1.3794    1.3611 H   0  0  0  0  0  0  0  0  0  0  0  0
   -2.9217   -0.1748    0.9692 H   0  0  0  0  0  0  0  0  0  0  0  0
   -0.5096    1.1014    1.4593 H   0  0  0  0  0  0  0  0  0  0  0  0
   -0.9832    1.4943   -1.3271 H   0  0  0  0  0  0  0  0  0  0  0  0
   -2.5444    1.3254   -0.4415 H   0  0  0  0  0  0  0  0  0  0  0  0
  1  2  1  0
  2  3  1  0
  3  4  1  0
  4  5  1  0
  5  6  1  0
  6  7  1  0
  7  8  1  0
  7  4  1  0
  8  5  1  0
  1  9  1  0
  2 10  1  0
  2 11  1  0
  3 12  1  0
  3 13  1  0
  4 14  1  0
  5 15  1  0
  6 16  1  0
  6 17  1  0
  7 18  1  0
  8 19  1  0
  8 20  1  0
M  END
