
     RDKit          3D

 23 23  0  0  0  0  0  0  0  0999 V2000
    3.1836   -0.5808    0.5549 O   0  0  0  0  0  0  0  0  0  0  0  0
    1.7874   -0.7698    0.6097 C   0  0  0  0  0  0  0  0  0  0  0  0
    1.1627    0.3478   -0.1555 C   0  0  0  0  0  0  0  0  0  0  0  0
   -0.3303    0.3014   -0.1992 C   0  0  0  0  0  0  0  0  0  0  0  0
   -0.8896    1.4618   -0.9893 C   0  0  0  0  0  0  0  0  0  0  0  0
   -0.5626    2.6895   -0.4866 O   0  0  0  0  0  0  0  0  0  0  0  0
   -0.8447   -0.9914   -0.7503 C   0  0  0  0  0  0  0  0  0  0  0  0
   -1.6584   -1.1881    0.5027 C   0  0  0  0  0  0  0  0  0  0  0  0
   -1.0343    0.0562    1.0980 C   0  0  0  0  0  0  0  0  0  0  0  0
    3.4995   -0.6140   -0.3960 H   0  0  0  0  0  0  0  0  0  0  0  0
    1.5179   -0.7262    1.6891 H   0  0  0  0  0  0  0  0  0  0  0  0
    1.5775   -1.7656    0.2311 H   0  0  0  0  0  0  0  0  0  0  0  0
    1.5720    1.2976    0.2153 H   0  0  0  0  0  0  0  0  0  0  0  0
    1.5246    0.2591   -1.2210 H   0  0  0  0  0  0  0  0  0  0  0  0
   -2.0078    1.3471   -0.9526 H   0  0  0  0  0  0  0  0  0  0  0  0
   -0.5701    1.4055   -2.0601 H   0  0  0  0  0  0  0  0  0  0  0  0
    0.0835    2.6923    0.2335 H   0  0  0  0  0  0  0  0  0  0  0  0
   -0.1228   -1.7999   -0.8963 H   0  0  0  0  0  0  0  0  0  0  0  0
   -1.4583   -0.8959   -1.6939 H   0  0  0  0  0  0  0  0  0  0  0  0
   -2.7465   -1.0802    0.2616 H   0  0  0  0  0  0  0  0  0  0  0  0
   -1.4170   -2.1064    1.0787 H   0  0  0  0  0  0  0  0  0  0  0  0
   -0.4263   -0.1304    1.9789 H   0  0  0  0  0  0  0  0  0  0  0  0
   -1.8400    0.7906    1.3473 H   0  0  0  0  0  0  0  0  0  0  0  0
  1  2  1  0
  2  3  1  0
  3  4  1  0
  4  5  1  0
  5  6  1  0
  4  7  1  0
  7  8  1  0
  8  9  1  0
  9  4  1  0
  1 10  1  0
  2 11  1  0
  2 12  1  0
  3 13  1  0
  3 14  1  0
  5 15  1  0
  5 16  1  0
  6 17  1  0
  7 18  1  0
  7 19  1  0
  8 20  1  0
  8 21  1  0
  9 22  1  0
  9 23  1  0
M  END
