
     RDKit          3D

 21 22  0  0  0  0  0  0  0  0999 V2000
    3.4570    0.2075   -0.3824 O   0  0  0  0  0  0  0  0  0  0  0  0
    2.2920   -0.4937   -0.0364 C   0  0  0  0  0  0  0  0  0  0  0  0
    1.1162    0.3691   -0.3778 C   0  0  0  0  0  0  0  0  0  0  0  0
   -0.2167   -0.0406   -0.1546 C   0  0  0  0  0  0  0  0  0  0  0  0
   -1.1769    0.9947   -0.5808 C   0  0  0  0  0  0  0  0  0  0  0  0
   -2.3370    1.0163    0.3510 C   0  0  0  0  0  0  0  0  0  0  0  0
   -2.4240   -0.2275    0.8028 C   0  0  0  0  0  0  0  0  0  0  0  0
   -1.2927   -0.9213    0.1016 C   0  0  0  0  0  0  0  0  0  0  0  0
   -0.1393   -1.1251    0.7876 C   0  0  0  0  0  0  0  0  0  0  0  0
    3.2960    0.8805   -1.0885 H   0  0  0  0  0  0  0  0  0  0  0  0
    2.3272   -0.6949    1.0336 H   0  0  0  0  0  0  0  0  0  0  0  0
    2.2219   -1.4287   -0.6452 H   0  0  0  0  0  0  0  0  0  0  0  0
    1.2677    0.6436   -1.4693 H   0  0  0  0  0  0  0  0  0  0  0  0
    1.3198    1.3596    0.1362 H   0  0  0  0  0  0  0  0  0  0  0  0
   -1.5625    0.7516   -1.6156 H   0  0  0  0  0  0  0  0  0  0  0  0
   -0.8080    2.0212   -0.6402 H   0  0  0  0  0  0  0  0  0  0  0  0
   -2.9810    1.8481    0.6173 H   0  0  0  0  0  0  0  0  0  0  0  0
   -3.1229   -0.6616    1.5007 H   0  0  0  0  0  0  0  0  0  0  0  0
   -1.6751   -1.5336   -0.7599 H   0  0  0  0  0  0  0  0  0  0  0  0
   -0.0936   -0.9870    1.9115 H   0  0  0  0  0  0  0  0  0  0  0  0
    0.5320   -1.9783    0.5083 H   0  0  0  0  0  0  0  0  0  0  0  0
  1  2  1  0
  2  3  1  0
  3  4  1  0
  4  5  1  0
  5  6  1  0
  6  7  2  0
  7  8  1  0
  8  9  1  0
  8  4  1  0
  9  4  1  0
  1 10  1  0
  2 11  1  0
  2 12  1  0
  3 13  1  0
  3 14  1  0
  5 15  1  0
  5 16  1  0
  6 17  1  0
  7 18  1  0
  8 19  1  0
  9 20  1  0
  9 21  1  0
M  END
