
     RDKit          3D

 21 22  0  0  0  0  0  0  0  0999 V2000
    3.4579    0.3499    0.2986 O   0  0  0  0  0  0  0  0  0  0  0  0
    2.2687   -0.1288   -0.2273 C   0  0  0  0  0  0  0  0  0  0  0  0
    1.1161   -0.0339    0.7488 C   0  0  0  0  0  0  0  0  0  0  0  0
   -0.1017   -0.5730    0.0801 C   0  0  0  0  0  0  0  0  0  0  0  0
   -0.5929    0.0623   -1.1619 C   0  0  0  0  0  0  0  0  0  0  0  0
   -1.0697    1.2023   -0.3171 C   0  0  0  0  0  0  0  0  0  0  0  0
   -1.4352    0.0103    0.4916 C   0  0  0  0  0  0  0  0  0  0  0  0
   -1.9927   -0.0706    1.6078 O   0  0  0  0  0  0  0  0  0  0  0  0
   -1.9275   -0.5738   -0.8204 C   0  0  0  0  0  0  0  0  0  0  0  0
    3.3524    0.8189    1.1622 H   0  0  0  0  0  0  0  0  0  0  0  0
    2.3954   -1.1934   -0.4756 H   0  0  0  0  0  0  0  0  0  0  0  0
    2.0218    0.4398   -1.1345 H   0  0  0  0  0  0  0  0  0  0  0  0
    1.3863   -0.7477    1.5848 H   0  0  0  0  0  0  0  0  0  0  0  0
    1.0162    0.9360    1.2341 H   0  0  0  0  0  0  0  0  0  0  0  0
   -0.0916   -1.6849    0.0260 H   0  0  0  0  0  0  0  0  0  0  0  0
   -0.1809    0.0992   -2.0713 H   0  0  0  0  0  0  0  0  0  0  0  0
   -1.9676    1.6820   -0.7793 H   0  0  0  0  0  0  0  0  0  0  0  0
   -0.3560    1.8969    0.1021 H   0  0  0  0  0  0  0  0  0  0  0  0
   -2.5769   -0.8515    1.7384 H   0  0  0  0  0  0  0  0  0  0  0  0
   -1.9662   -1.6576   -0.8847 H   0  0  0  0  0  0  0  0  0  0  0  0
   -2.7561    0.0177   -1.2023 H   0  0  0  0  0  0  0  0  0  0  0  0
  1  2  1  0
  2  3  1  0
  3  4  1  0
  4  5  1  0
  5  6  1  0
  6  7  1  0
  7  8  1  0
  7  9  1  0
  7  4  1  0
  9  5  1  0
  1 10  1  0
  2 11  1  0
  2 12  1  0
  3 13  1  0
  3 14  1  0
  4 15  1  0
  5 16  1  0
  6 17  1  0
  6 18  1  0
  8 19  1  0
  9 20  1  0
  9 21  1  0
M  END
