
     RDKit          3D

 16 16  0  0  0  0  0  0  0  0999 V2000
   -3.5707   -1.0441   -0.7656 O   0  0  0  0  0  0  0  0  0  0  0  0
   -2.2198   -1.0980   -0.3547 C   0  0  0  0  0  0  0  0  0  0  0  0
   -1.6763    0.2947   -0.4420 C   0  0  0  0  0  0  0  0  0  0  0  0
   -0.2582    0.2550   -0.0136 C   0  0  0  0  0  0  0  0  0  0  0  0
    0.9021    0.2273    0.3172 C   0  0  0  0  0  0  0  0  0  0  0  0
    2.3092    0.1751    0.7365 C   0  0  0  0  0  0  0  0  0  0  0  0
    3.3434    0.5709   -0.1111 C   0  0  0  0  0  0  0  0  0  0  0  0
    2.9045    1.5586    0.8220 O   0  0  0  0  0  0  0  0  0  0  0  0
   -3.8701   -0.1242   -0.9205 H   0  0  0  0  0  0  0  0  0  0  0  0
   -2.2244   -1.5125    0.6604 H   0  0  0  0  0  0  0  0  0  0  0  0
   -1.7285   -1.7790   -1.0965 H   0  0  0  0  0  0  0  0  0  0  0  0
   -2.2751    0.9280    0.2544 H   0  0  0  0  0  0  0  0  0  0  0  0
   -1.7480    0.6462   -1.4665 H   0  0  0  0  0  0  0  0  0  0  0  0
    2.5223   -0.2704    1.7443 H   0  0  0  0  0  0  0  0  0  0  0  0
    3.1842    0.9082   -1.1400 H   0  0  0  0  0  0  0  0  0  0  0  0
    4.4054    0.2642    0.0916 H   0  0  0  0  0  0  0  0  0  0  0  0
  1  2  1  0
  2  3  1  0
  3  4  1  0
  4  5  3  0
  5  6  1  0
  6  7  1  0
  7  8  1  0
  8  6  1  0
  1  9  1  0
  2 10  1  0
  2 11  1  0
  3 12  1  0
  3 13  1  0
  6 14  1  0
  7 15  1  0
  7 16  1  0
M  END
