
     RDKit          3D

 23 23  0  0  0  0  0  0  0  0999 V2000
    3.5455   -0.7000    1.0604 O   0  0  0  0  0  0  0  0  0  0  0  0
    2.8971   -0.4391   -0.1283 C   0  0  0  0  0  0  0  0  0  0  0  0
    1.4389    0.0007    0.1457 C   0  0  0  0  0  0  0  0  0  0  0  0
    0.7618    0.2765   -1.1619 C   0  0  0  0  0  0  0  0  0  0  0  0
   -0.6365    0.7467   -1.1094 C   0  0  0  0  0  0  0  0  0  0  0  0
   -1.6434   -0.1277   -0.4470 C   0  0  0  0  0  0  0  0  0  0  0  0
   -1.5366   -0.4814    0.9705 C   0  0  0  0  0  0  0  0  0  0  0  0
   -2.6606    0.4715    0.4970 C   0  0  0  0  0  0  0  0  0  0  0  0
   -3.9209   -0.0570    0.6097 O   0  0  0  0  0  0  0  0  0  0  0  0
    3.7888    0.1553    1.5290 H   0  0  0  0  0  0  0  0  0  0  0  0
    2.8975   -1.3677   -0.7317 H   0  0  0  0  0  0  0  0  0  0  0  0
    3.4112    0.3943   -0.6413 H   0  0  0  0  0  0  0  0  0  0  0  0
    1.0295   -0.9335    0.6339 H   0  0  0  0  0  0  0  0  0  0  0  0
    1.4729    0.8583    0.8362 H   0  0  0  0  0  0  0  0  0  0  0  0
    0.9251   -0.5931   -1.8391 H   0  0  0  0  0  0  0  0  0  0  0  0
    1.3629    1.1183   -1.6285 H   0  0  0  0  0  0  0  0  0  0  0  0
   -0.6394    1.7499   -0.5922 H   0  0  0  0  0  0  0  0  0  0  0  0
   -1.0318    0.9765   -2.1318 H   0  0  0  0  0  0  0  0  0  0  0  0
   -2.1501   -0.8875   -1.1352 H   0  0  0  0  0  0  0  0  0  0  0  0
   -0.8269   -0.0387    1.6631 H   0  0  0  0  0  0  0  0  0  0  0  0
   -1.8418   -1.5185    1.2491 H   0  0  0  0  0  0  0  0  0  0  0  0
   -2.5388    1.5403    0.7598 H   0  0  0  0  0  0  0  0  0  0  0  0
   -4.1044   -0.1942    1.5920 H   0  0  0  0  0  0  0  0  0  0  0  0
  1  2  1  0
  2  3  1  0
  3  4  1  0
  4  5  1  0
  5  6  1  0
  6  7  1  0
  7  8  1  0
  8  9  1  0
  8  6  1  0
  1 10  1  0
  2 11  1  0
  2 12  1  0
  3 13  1  0
  3 14  1  0
  4 15  1  0
  4 16  1  0
  5 17  1  0
  5 18  1  0
  6 19  1  0
  7 20  1  0
  7 21  1  0
  8 22  1  0
  9 23  1  0
M  END
