
     RDKit          3D

 20 20  0  0  0  0  0  0  0  0999 V2000
   -3.4460    0.3262   -0.9355 O   0  0  0  0  0  0  0  0  0  0  0  0
   -2.5843   -0.2029   -0.0032 C   0  0  0  0  0  0  0  0  0  0  0  0
   -1.1453   -0.0778   -0.4546 C   0  0  0  0  0  0  0  0  0  0  0  0
   -0.2369   -0.6766    0.6097 C   0  0  0  0  0  0  0  0  0  0  0  0
    1.1692   -0.5402    0.1407 C   0  0  0  0  0  0  0  0  0  0  0  0
    1.6360    0.8790   -0.1052 C   0  0  0  0  0  0  0  0  0  0  0  0
    2.9526    0.1811    0.2625 C   0  0  0  0  0  0  0  0  0  0  0  0
    2.1645   -0.6434    1.0998 O   0  0  0  0  0  0  0  0  0  0  0  0
   -3.5205    1.3012   -0.8567 H   0  0  0  0  0  0  0  0  0  0  0  0
   -2.6716    0.3215    0.9696 H   0  0  0  0  0  0  0  0  0  0  0  0
   -2.7815   -1.2957    0.1161 H   0  0  0  0  0  0  0  0  0  0  0  0
   -0.8721    0.9776   -0.6377 H   0  0  0  0  0  0  0  0  0  0  0  0
   -0.9879   -0.6368   -1.4007 H   0  0  0  0  0  0  0  0  0  0  0  0
   -0.4819   -1.7542    0.6634 H   0  0  0  0  0  0  0  0  0  0  0  0
   -0.4489   -0.1897    1.5689 H   0  0  0  0  0  0  0  0  0  0  0  0
    1.3354   -1.1389   -0.7781 H   0  0  0  0  0  0  0  0  0  0  0  0
    1.5649    1.2025   -1.1394 H   0  0  0  0  0  0  0  0  0  0  0  0
    1.3562    1.6091    0.6795 H   0  0  0  0  0  0  0  0  0  0  0  0
    3.3209   -0.4485   -0.5760 H   0  0  0  0  0  0  0  0  0  0  0  0
    3.6772    0.8065    0.7769 H   0  0  0  0  0  0  0  0  0  0  0  0
  1  2  1  0
  2  3  1  0
  3  4  1  0
  4  5  1  0
  5  6  1  0
  6  7  1  0
  7  8  1  0
  8  5  1  0
  1  9  1  0
  2 10  1  0
  2 11  1  0
  3 12  1  0
  3 13  1  0
  4 14  1  0
  4 15  1  0
  5 16  1  0
  6 17  1  0
  6 18  1  0
  7 19  1  0
  7 20  1  0
M  END
