
     RDKit          3D

 21 21  0  0  0  0  0  0  0  0999 V2000
    2.7546   -0.9996   -0.3274 O   0  0  0  0  0  0  0  0  0  0  0  0
    2.5736    0.2424    0.2186 C   0  0  0  0  0  0  0  0  0  0  0  0
    1.3277    0.3667    1.0508 C   0  0  0  0  0  0  0  0  0  0  0  0
    0.0889    0.1021    0.3102 C   0  0  0  0  0  0  0  0  0  0  0  0
   -0.7168   -0.8850    0.6892 C   0  0  0  0  0  0  0  0  0  0  0  0
   -1.9460   -1.0649   -0.1328 C   0  0  0  0  0  0  0  0  0  0  0  0
   -2.5498    0.2996   -0.3294 C   0  0  0  0  0  0  0  0  0  0  0  0
   -1.6956    1.2588   -0.8001 O   0  0  0  0  0  0  0  0  0  0  0  0
   -0.3613    0.8774   -0.8798 C   0  0  0  0  0  0  0  0  0  0  0  0
    3.1050   -0.8932   -1.2473 H   0  0  0  0  0  0  0  0  0  0  0  0
    2.5210    1.0148   -0.5997 H   0  0  0  0  0  0  0  0  0  0  0  0
    3.4741    0.5103    0.8069 H   0  0  0  0  0  0  0  0  0  0  0  0
    1.2614    1.3909    1.4773 H   0  0  0  0  0  0  0  0  0  0  0  0
    1.4188   -0.3301    1.8942 H   0  0  0  0  0  0  0  0  0  0  0  0
   -0.5416   -1.5426    1.5280 H   0  0  0  0  0  0  0  0  0  0  0  0
   -1.6669   -1.5412   -1.1039 H   0  0  0  0  0  0  0  0  0  0  0  0
   -2.7043   -1.6817    0.3941 H   0  0  0  0  0  0  0  0  0  0  0  0
   -2.9269    0.6203    0.6850 H   0  0  0  0  0  0  0  0  0  0  0  0
   -3.4161    0.1809   -1.0329 H   0  0  0  0  0  0  0  0  0  0  0  0
    0.2421    1.7988   -1.0024 H   0  0  0  0  0  0  0  0  0  0  0  0
   -0.2418    0.2753   -1.8211 H   0  0  0  0  0  0  0  0  0  0  0  0
  1  2  1  0
  2  3  1  0
  3  4  1  0
  4  5  2  0
  5  6  1  0
  6  7  1  0
  7  8  1  0
  8  9  1  0
  9  4  1  0
  1 10  1  0
  2 11  1  0
  2 12  1  0
  3 13  1  0
  3 14  1  0
  5 15  1  0
  6 16  1  0
  6 17  1  0
  7 18  1  0
  7 19  1  0
  9 20  1  0
  9 21  1  0
M  END
