
     RDKit          3D

 21 21  0  0  0  0  0  0  0  0999 V2000
   -2.9224    1.3593    0.3169 O   0  0  0  0  0  0  0  0  0  0  0  0
   -2.1730    0.1845    0.4542 C   0  0  0  0  0  0  0  0  0  0  0  0
   -0.8888    0.3818   -0.3428 C   0  0  0  0  0  0  0  0  0  0  0  0
    0.0150   -0.8061   -0.2840 C   0  0  0  0  0  0  0  0  0  0  0  0
   -0.5405   -1.9913   -0.7837 O   0  0  0  0  0  0  0  0  0  0  0  0
    0.8275   -0.9041    1.0036 C   0  0  0  0  0  0  0  0  0  0  0  0
    1.4810   -0.6940   -0.3485 C   0  0  0  0  0  0  0  0  0  0  0  0
    2.1800    0.6181   -0.5542 C   0  0  0  0  0  0  0  0  0  0  0  0
    1.9116    1.5474    0.4369 O   0  0  0  0  0  0  0  0  0  0  0  0
   -3.8098    1.2236    0.7413 H   0  0  0  0  0  0  0  0  0  0  0  0
   -2.7226   -0.6687    0.0607 H   0  0  0  0  0  0  0  0  0  0  0  0
   -1.9881    0.0358    1.5197 H   0  0  0  0  0  0  0  0  0  0  0  0
   -1.2295    0.5677   -1.4023 H   0  0  0  0  0  0  0  0  0  0  0  0
   -0.3727    1.3135   -0.0339 H   0  0  0  0  0  0  0  0  0  0  0  0
   -1.4087   -2.1825   -0.3175 H   0  0  0  0  0  0  0  0  0  0  0  0
    0.8380   -1.9067    1.4557 H   0  0  0  0  0  0  0  0  0  0  0  0
    0.8344   -0.0305    1.6815 H   0  0  0  0  0  0  0  0  0  0  0  0
    2.0492   -1.5749   -0.6942 H   0  0  0  0  0  0  0  0  0  0  0  0
    3.2702    0.4536   -0.5651 H   0  0  0  0  0  0  0  0  0  0  0  0
    1.9142    1.1018   -1.5253 H   0  0  0  0  0  0  0  0  0  0  0  0
    2.7349    1.9717    0.7987 H   0  0  0  0  0  0  0  0  0  0  0  0
  1  2  1  0
  2  3  1  0
  3  4  1  0
  4  5  1  0
  4  6  1  0
  6  7  1  0
  7  8  1  0
  8  9  1  0
  7  4  1  0
  1 10  1  0
  2 11  1  0
  2 12  1  0
  3 13  1  0
  3 14  1  0
  5 15  1  0
  6 16  1  0
  6 17  1  0
  7 18  1  0
  8 19  1  0
  8 20  1  0
  9 21  1  0
M  END
