
     RDKit          3D

 23 22  0  0  0  0  0  0  0  0999 V2000
    3.8662   -0.6332    0.2557 O   0  0  0  0  0  0  0  0  0  0  0  0
    2.4760   -0.8197    0.0877 C   0  0  0  0  0  0  0  0  0  0  0  0
    2.0102    0.2437   -0.8835 C   0  0  0  0  0  0  0  0  0  0  0  0
    0.5259    0.1596   -1.1585 C   0  0  0  0  0  0  0  0  0  0  0  0
   -0.2245    0.3411    0.1351 C   0  0  0  0  0  0  0  0  0  0  0  0
   -1.7237    0.2692   -0.0665 C   0  0  0  0  0  0  0  0  0  0  0  0
   -2.0734   -0.9721   -0.5967 O   0  0  0  0  0  0  0  0  0  0  0  0
   -2.4092    0.3498    1.2981 C   0  0  0  0  0  0  0  0  0  0  0  0
   -3.7952    0.2393    1.1016 O   0  0  0  0  0  0  0  0  0  0  0  0
    4.2531   -0.7959   -0.6509 H   0  0  0  0  0  0  0  0  0  0  0  0
    2.0480   -0.6474    1.0995 H   0  0  0  0  0  0  0  0  0  0  0  0
    2.2400   -1.8365   -0.2205 H   0  0  0  0  0  0  0  0  0  0  0  0
    2.6285    0.2741   -1.7825 H   0  0  0  0  0  0  0  0  0  0  0  0
    2.1676    1.2325   -0.3615 H   0  0  0  0  0  0  0  0  0  0  0  0
    0.2963    1.0210   -1.8385 H   0  0  0  0  0  0  0  0  0  0  0  0
    0.2370   -0.7423   -1.6979 H   0  0  0  0  0  0  0  0  0  0  0  0
    0.0365    1.3159    0.5937 H   0  0  0  0  0  0  0  0  0  0  0  0
    0.0362   -0.4420    0.8665 H   0  0  0  0  0  0  0  0  0  0  0  0
   -2.1136    1.0428   -0.7396 H   0  0  0  0  0  0  0  0  0  0  0  0
   -2.1810   -1.6706    0.0678 H   0  0  0  0  0  0  0  0  0  0  0  0
   -2.1866    1.3484    1.7299 H   0  0  0  0  0  0  0  0  0  0  0  0
   -2.0341   -0.4262    1.9820 H   0  0  0  0  0  0  0  0  0  0  0  0
   -4.0801    1.1485    0.7793 H   0  0  0  0  0  0  0  0  0  0  0  0
  1  2  1  0
  2  3  1  0
  3  4  1  0
  4  5  1  0
  5  6  1  0
  6  7  1  0
  6  8  1  0
  8  9  1  0
  1 10  1  0
  2 11  1  0
  2 12  1  0
  3 13  1  0
  3 14  1  0
  4 15  1  0
  4 16  1  0
  5 17  1  0
  5 18  1  0
  6 19  1  0
  7 20  1  0
  8 21  1  0
  8 22  1  0
  9 23  1  0
M  END
