
     RDKit          3D

 20 20  0  0  0  0  0  0  0  0999 V2000
    2.2794   -0.4895   -1.2668 O   0  0  0  0  0  0  0  0  0  0  0  0
    2.2681    0.4436   -0.2643 C   0  0  0  0  0  0  0  0  0  0  0  0
    0.9052    0.9347    0.1190 C   0  0  0  0  0  0  0  0  0  0  0  0
   -0.0169   -0.1288    0.6075 C   0  0  0  0  0  0  0  0  0  0  0  0
   -0.2683   -1.1902   -0.3838 C   0  0  0  0  0  0  0  0  0  0  0  0
   -1.5207   -1.1954   -0.8038 C   0  0  0  0  0  0  0  0  0  0  0  0
   -2.3113   -0.1165   -0.1431 C   0  0  0  0  0  0  0  0  0  0  0  0
   -1.3793    0.5100    0.8379 C   0  0  0  0  0  0  0  0  0  0  0  0
    3.1788   -0.9433   -1.2335 H   0  0  0  0  0  0  0  0  0  0  0  0
    2.8145    0.0283    0.6030 H   0  0  0  0  0  0  0  0  0  0  0  0
    2.8481    1.3270   -0.6180 H   0  0  0  0  0  0  0  0  0  0  0  0
    1.0328    1.6851    0.9217 H   0  0  0  0  0  0  0  0  0  0  0  0
    0.4357    1.4391   -0.7375 H   0  0  0  0  0  0  0  0  0  0  0  0
    0.2851   -0.5720    1.5845 H   0  0  0  0  0  0  0  0  0  0  0  0
    0.4856   -1.8893   -0.7318 H   0  0  0  0  0  0  0  0  0  0  0  0
   -2.0025   -1.8640   -1.5356 H   0  0  0  0  0  0  0  0  0  0  0  0
   -3.2137   -0.5529    0.3776 H   0  0  0  0  0  0  0  0  0  0  0  0
   -2.7137    0.6151   -0.8765 H   0  0  0  0  0  0  0  0  0  0  0  0
   -1.3567    1.6018    0.6626 H   0  0  0  0  0  0  0  0  0  0  0  0
   -1.7501    0.3570    1.8641 H   0  0  0  0  0  0  0  0  0  0  0  0
  1  2  1  0
  2  3  1  0
  3  4  1  0
  4  5  1  0
  5  6  2  0
  6  7  1  0
  7  8  1  0
  8  4  1  0
  1  9  1  0
  2 10  1  0
  2 11  1  0
  3 12  1  0
  3 13  1  0
  4 14  1  0
  5 15  1  0
  6 16  1  0
  7 17  1  0
  7 18  1  0
  8 19  1  0
  8 20  1  0
M  END
