
     RDKit          3D

 21 21  0  0  0  0  0  0  0  0999 V2000
    4.3730    1.1958    0.2903 O   0  0  0  0  0  0  0  0  0  0  0  0
    3.5712    0.1309   -0.1221 C   0  0  0  0  0  0  0  0  0  0  0  0
    2.1008    0.5065    0.0555 C   0  0  0  0  0  0  0  0  0  0  0  0
    1.2788   -0.6766   -0.4039 C   0  0  0  0  0  0  0  0  0  0  0  0
   -0.1378   -0.2873   -0.2218 C   0  0  0  0  0  0  0  0  0  0  0  0
   -1.2927    0.0404   -0.0835 C   0  0  0  0  0  0  0  0  0  0  0  0
   -2.7042    0.4355    0.0601 C   0  0  0  0  0  0  0  0  0  0  0  0
   -3.6084   -0.5637    0.8015 C   0  0  0  0  0  0  0  0  0  0  0  0
   -3.7098   -0.3725   -0.6685 C   0  0  0  0  0  0  0  0  0  0  0  0
    4.1173    1.9752   -0.2625 H   0  0  0  0  0  0  0  0  0  0  0  0
    3.7822   -0.1994   -1.1460 H   0  0  0  0  0  0  0  0  0  0  0  0
    3.8202   -0.7343    0.5553 H   0  0  0  0  0  0  0  0  0  0  0  0
    1.9024    1.3495   -0.6373 H   0  0  0  0  0  0  0  0  0  0  0  0
    1.8803    0.8134    1.0778 H   0  0  0  0  0  0  0  0  0  0  0  0
    1.4968   -1.5906    0.1741 H   0  0  0  0  0  0  0  0  0  0  0  0
    1.5080   -0.8790   -1.4650 H   0  0  0  0  0  0  0  0  0  0  0  0
   -2.9134    1.4983    0.2763 H   0  0  0  0  0  0  0  0  0  0  0  0
   -3.0836   -1.4285    1.2348 H   0  0  0  0  0  0  0  0  0  0  0  0
   -4.3800   -0.1445    1.4854 H   0  0  0  0  0  0  0  0  0  0  0  0
   -4.6588    0.1151   -1.0058 H   0  0  0  0  0  0  0  0  0  0  0  0
   -3.3425   -1.1840   -1.3266 H   0  0  0  0  0  0  0  0  0  0  0  0
  1  2  1  0
  2  3  1  0
  3  4  1  0
  4  5  1  0
  5  6  3  0
  6  7  1  0
  7  8  1  0
  8  9  1  0
  9  7  1  0
  1 10  1  0
  2 11  1  0
  2 12  1  0
  3 13  1  0
  3 14  1  0
  4 15  1  0
  4 16  1  0
  7 17  1  0
  8 18  1  0
  8 19  1  0
  9 20  1  0
  9 21  1  0
M  END
