
     RDKit          3D

 19 20  0  0  0  0  0  0  0  0999 V2000
    2.6310    0.4380    1.4998 O   0  0  0  0  0  0  0  0  0  0  0  0
    1.7042    0.7858    0.5211 C   0  0  0  0  0  0  0  0  0  0  0  0
    0.9304   -0.4227    0.0476 C   0  0  0  0  0  0  0  0  0  0  0  0
   -0.0749   -0.1156   -0.9980 C   0  0  0  0  0  0  0  0  0  0  0  0
   -1.1597    0.8620   -0.6325 C   0  0  0  0  0  0  0  0  0  0  0  0
   -1.6542    0.4057    0.6895 C   0  0  0  0  0  0  0  0  0  0  0  0
   -1.6959   -0.9150    0.5091 C   0  0  0  0  0  0  0  0  0  0  0  0
   -1.2629   -1.0060   -0.9382 C   0  0  0  0  0  0  0  0  0  0  0  0
   -1.9969    0.0812   -1.4687 O   0  0  0  0  0  0  0  0  0  0  0  0
    3.2646   -0.2225    1.1226 H   0  0  0  0  0  0  0  0  0  0  0  0
    0.9972    1.5191    1.0098 H   0  0  0  0  0  0  0  0  0  0  0  0
    2.1496    1.3438   -0.3219 H   0  0  0  0  0  0  0  0  0  0  0  0
    0.4412   -0.9099    0.9061 H   0  0  0  0  0  0  0  0  0  0  0  0
    1.6609   -1.1368   -0.3586 H   0  0  0  0  0  0  0  0  0  0  0  0
    0.2842    0.0181   -2.0283 H   0  0  0  0  0  0  0  0  0  0  0  0
   -1.0573    1.8895   -0.8466 H   0  0  0  0  0  0  0  0  0  0  0  0
   -1.8919    1.0405    1.5198 H   0  0  0  0  0  0  0  0  0  0  0  0
   -1.9611   -1.7195    1.1884 H   0  0  0  0  0  0  0  0  0  0  0  0
   -1.3083   -1.9359   -1.4211 H   0  0  0  0  0  0  0  0  0  0  0  0
  1  2  1  0
  2  3  1  0
  3  4  1  0
  4  5  1  0
  5  6  1  0
  6  7  2  0
  7  8  1  0
  8  9  1  0
  8  4  1  0
  9  5  1  0
  1 10  1  0
  2 11  1  0
  2 12  1  0
  3 13  1  0
  3 14  1  0
  4 15  1  0
  5 16  1  0
  6 17  1  0
  7 18  1  0
  8 19  1  0
M  END
