
     RDKit          3D

 21 21  0  0  0  0  0  0  0  0999 V2000
   -3.4207    0.2389    0.0548 O   0  0  0  0  0  0  0  0  0  0  0  0
   -2.7056   -0.7673   -0.6079 C   0  0  0  0  0  0  0  0  0  0  0  0
   -1.2886   -0.8734   -0.0894 C   0  0  0  0  0  0  0  0  0  0  0  0
   -0.5655    0.4379   -0.2991 C   0  0  0  0  0  0  0  0  0  0  0  0
    0.8330    0.3793    0.1966 C   0  0  0  0  0  0  0  0  0  0  0  0
    1.4407   -0.6554    0.7626 C   0  0  0  0  0  0  0  0  0  0  0  0
    2.8337   -0.2754    1.1033 C   0  0  0  0  0  0  0  0  0  0  0  0
    2.7929    1.0993    1.1194 O   0  0  0  0  0  0  0  0  0  0  0  0
    1.8478    1.4795    0.1666 C   0  0  0  0  0  0  0  0  0  0  0  0
   -3.2306    1.1404   -0.3236 H   0  0  0  0  0  0  0  0  0  0  0  0
   -2.6728   -0.5697   -1.7078 H   0  0  0  0  0  0  0  0  0  0  0  0
   -3.2359   -1.7241   -0.4352 H   0  0  0  0  0  0  0  0  0  0  0  0
   -0.7801   -1.6350   -0.7225 H   0  0  0  0  0  0  0  0  0  0  0  0
   -1.2491   -1.2289    0.9372 H   0  0  0  0  0  0  0  0  0  0  0  0
   -1.1043    1.2033    0.2958 H   0  0  0  0  0  0  0  0  0  0  0  0
   -0.6393    0.7486   -1.3608 H   0  0  0  0  0  0  0  0  0  0  0  0
    0.9431   -1.6232    0.9302 H   0  0  0  0  0  0  0  0  0  0  0  0
    3.1735   -0.7199    2.0555 H   0  0  0  0  0  0  0  0  0  0  0  0
    3.4666   -0.5791    0.2412 H   0  0  0  0  0  0  0  0  0  0  0  0
    2.2618    1.5198   -0.8478 H   0  0  0  0  0  0  0  0  0  0  0  0
    1.2993    2.4042    0.4606 H   0  0  0  0  0  0  0  0  0  0  0  0
  1  2  1  0
  2  3  1  0
  3  4  1  0
  4  5  1  0
  5  6  2  0
  6  7  1  0
  7  8  1  0
  8  9  1  0
  9  5  1  0
  1 10  1  0
  2 11  1  0
  2 12  1  0
  3 13  1  0
  3 14  1  0
  4 15  1  0
  4 16  1  0
  6 17  1  0
  7 18  1  0
  7 19  1  0
  9 20  1  0
  9 21  1  0
M  END
