
     RDKit          3D

 19 20  0  0  0  0  0  0  0  0999 V2000
    3.3093    0.0458    0.5674 O   0  0  0  0  0  0  0  0  0  0  0  0
    2.0492    0.6382    0.3257 C   0  0  0  0  0  0  0  0  0  0  0  0
    1.1574   -0.4319   -0.1946 C   0  0  0  0  0  0  0  0  0  0  0  0
   -0.2280   -0.0010   -0.5121 C   0  0  0  0  0  0  0  0  0  0  0  0
   -1.1197   -1.1202   -1.0439 C   0  0  0  0  0  0  0  0  0  0  0  0
   -2.2670   -0.9625   -0.3085 O   0  0  0  0  0  0  0  0  0  0  0  0
   -2.4857    0.3947   -0.1495 C   0  0  0  0  0  0  0  0  0  0  0  0
   -1.0620    0.9011    0.1274 C   0  0  0  0  0  0  0  0  0  0  0  0
   -0.3941    1.2643   -1.0520 O   0  0  0  0  0  0  0  0  0  0  0  0
    3.2189   -0.9227    0.7292 H   0  0  0  0  0  0  0  0  0  0  0  0
    1.6782    1.1491    1.2222 H   0  0  0  0  0  0  0  0  0  0  0  0
    2.2339    1.3957   -0.4914 H   0  0  0  0  0  0  0  0  0  0  0  0
    1.6207   -0.8410   -1.1228 H   0  0  0  0  0  0  0  0  0  0  0  0
    1.1302   -1.2636    0.5686 H   0  0  0  0  0  0  0  0  0  0  0  0
   -1.2620   -1.0045   -2.1284 H   0  0  0  0  0  0  0  0  0  0  0  0
   -0.6886   -2.1067   -0.8105 H   0  0  0  0  0  0  0  0  0  0  0  0
   -3.1665    0.6315    0.6616 H   0  0  0  0  0  0  0  0  0  0  0  0
   -2.8531    0.7930   -1.1166 H   0  0  0  0  0  0  0  0  0  0  0  0
   -0.8710    1.4408    1.0558 H   0  0  0  0  0  0  0  0  0  0  0  0
  1  2  1  0
  2  3  1  0
  3  4  1  0
  4  5  1  0
  5  6  1  0
  6  7  1  0
  7  8  1  0
  8  9  1  0
  8  4  1  0
  9  4  1  0
  1 10  1  0
  2 11  1  0
  2 12  1  0
  3 13  1  0
  3 14  1  0
  5 15  1  0
  5 16  1  0
  7 17  1  0
  7 18  1  0
  8 19  1  0
M  END
