
     RDKit          3D

 23 22  0  0  0  0  0  0  0  0999 V2000
   -3.1137    0.7248   -0.4843 O   0  0  0  0  0  0  0  0  0  0  0  0
   -2.7608   -0.4161    0.2344 C   0  0  0  0  0  0  0  0  0  0  0  0
   -1.3809   -0.8337   -0.2932 C   0  0  0  0  0  0  0  0  0  0  0  0
   -0.4630    0.3313   -0.0253 C   0  0  0  0  0  0  0  0  0  0  0  0
    0.9492    0.0931   -0.4850 C   0  0  0  0  0  0  0  0  0  0  0  0
    1.7560    1.3176   -0.1634 C   0  0  0  0  0  0  0  0  0  0  0  0
    1.7710    1.6007    1.2005 O   0  0  0  0  0  0  0  0  0  0  0  0
    1.4578   -1.1486    0.1764 C   0  0  0  0  0  0  0  0  0  0  0  0
    2.7685   -1.4315   -0.2056 O   0  0  0  0  0  0  0  0  0  0  0  0
   -3.7292    1.3111   -0.0055 H   0  0  0  0  0  0  0  0  0  0  0  0
   -3.5153   -1.1793    0.0537 H   0  0  0  0  0  0  0  0  0  0  0  0
   -2.6523   -0.1523    1.2952 H   0  0  0  0  0  0  0  0  0  0  0  0
   -1.0927   -1.7069    0.3536 H   0  0  0  0  0  0  0  0  0  0  0  0
   -1.4617   -1.0891   -1.3524 H   0  0  0  0  0  0  0  0  0  0  0  0
   -0.4873    0.5200    1.0640 H   0  0  0  0  0  0  0  0  0  0  0  0
   -0.8826    1.2385   -0.5081 H   0  0  0  0  0  0  0  0  0  0  0  0
    0.9928   -0.0509   -1.5822 H   0  0  0  0  0  0  0  0  0  0  0  0
    1.2941    2.1668   -0.7221 H   0  0  0  0  0  0  0  0  0  0  0  0
    2.8006    1.2545   -0.5157 H   0  0  0  0  0  0  0  0  0  0  0  0
    2.3301    2.4075    1.3250 H   0  0  0  0  0  0  0  0  0  0  0  0
    0.8417   -1.9995   -0.2188 H   0  0  0  0  0  0  0  0  0  0  0  0
    1.3224   -1.1499    1.2729 H   0  0  0  0  0  0  0  0  0  0  0  0
    3.2552   -1.8081    0.5716 H   0  0  0  0  0  0  0  0  0  0  0  0
  1  2  1  0
  2  3  1  0
  3  4  1  0
  4  5  1  0
  5  6  1  0
  6  7  1  0
  5  8  1  0
  8  9  1  0
  1 10  1  0
  2 11  1  0
  2 12  1  0
  3 13  1  0
  3 14  1  0
  4 15  1  0
  4 16  1  0
  5 17  1  0
  6 18  1  0
  6 19  1  0
  7 20  1  0
  8 21  1  0
  8 22  1  0
  9 23  1  0
M  END
