
     RDKit          3D

 21 22  0  0  0  0  0  0  0  0999 V2000
    3.5290    0.0519   -1.0189 O   0  0  0  0  0  0  0  0  0  0  0  0
    2.1580   -0.1931   -0.9527 C   0  0  0  0  0  0  0  0  0  0  0  0
    1.5184    0.6733    0.0895 C   0  0  0  0  0  0  0  0  0  0  0  0
    0.0556    0.4928    0.2435 C   0  0  0  0  0  0  0  0  0  0  0  0
   -0.3975   -0.8620    0.6240 C   0  0  0  0  0  0  0  0  0  0  0  0
   -1.8526   -0.8659    0.1342 C   0  0  0  0  0  0  0  0  0  0  0  0
   -2.6457    0.3736    0.2622 C   0  0  0  0  0  0  0  0  0  0  0  0
   -1.8183    0.1640   -0.9345 C   0  0  0  0  0  0  0  0  0  0  0  0
   -0.5814    0.7494   -0.9690 O   0  0  0  0  0  0  0  0  0  0  0  0
    3.8841    0.3153   -0.1401 H   0  0  0  0  0  0  0  0  0  0  0  0
    1.7623    0.0590   -1.9793 H   0  0  0  0  0  0  0  0  0  0  0  0
    2.0198   -1.2608   -0.8125 H   0  0  0  0  0  0  0  0  0  0  0  0
    1.7254    1.7323   -0.1740 H   0  0  0  0  0  0  0  0  0  0  0  0
    2.0420    0.4884    1.0531 H   0  0  0  0  0  0  0  0  0  0  0  0
   -0.3343    1.2320    0.9673 H   0  0  0  0  0  0  0  0  0  0  0  0
    0.0860   -1.6884    0.0957 H   0  0  0  0  0  0  0  0  0  0  0  0
   -0.4641   -1.0376    1.7276 H   0  0  0  0  0  0  0  0  0  0  0  0
   -2.3210   -1.8181   -0.1186 H   0  0  0  0  0  0  0  0  0  0  0  0
   -2.3736    1.1740    0.9725 H   0  0  0  0  0  0  0  0  0  0  0  0
   -3.7356    0.2628    0.1316 H   0  0  0  0  0  0  0  0  0  0  0  0
   -2.2565   -0.0428   -1.9324 H   0  0  0  0  0  0  0  0  0  0  0  0
  1  2  1  0
  2  3  1  0
  3  4  1  0
  4  5  1  0
  5  6  1  0
  6  7  1  0
  7  8  1  0
  8  9  1  0
  9  4  1  0
  8  6  1  0
  1 10  1  0
  2 11  1  0
  2 12  1  0
  3 13  1  0
  3 14  1  0
  4 15  1  0
  5 16  1  0
  5 17  1  0
  6 18  1  0
  7 19  1  0
  7 20  1  0
  8 21  1  0
M  END
