
     RDKit          3D

 21 22  0  0  0  0  0  0  0  0999 V2000
    3.6394   -0.1454   -1.2184 O   0  0  0  0  0  0  0  0  0  0  0  0
    2.4820    0.3544   -0.6485 C   0  0  0  0  0  0  0  0  0  0  0  0
    1.6413   -0.7295   -0.0211 C   0  0  0  0  0  0  0  0  0  0  0  0
    0.4087   -0.0953    0.5708 C   0  0  0  0  0  0  0  0  0  0  0  0
   -0.4630    0.6354   -0.4316 C   0  0  0  0  0  0  0  0  0  0  0  0
   -1.5445   -0.2346   -0.0818 C   0  0  0  0  0  0  0  0  0  0  0  0
   -2.7422    0.4984   -0.2684 C   0  0  0  0  0  0  0  0  0  0  0  0
   -2.7215   -0.4511    0.7182 C   0  0  0  0  0  0  0  0  0  0  0  0
   -0.6519   -0.9541    0.5587 O   0  0  0  0  0  0  0  0  0  0  0  0
    3.9270   -1.0154   -0.8449 H   0  0  0  0  0  0  0  0  0  0  0  0
    2.7657    1.0897    0.1220 H   0  0  0  0  0  0  0  0  0  0  0  0
    1.8894    0.8335   -1.4713 H   0  0  0  0  0  0  0  0  0  0  0  0
    1.3875   -1.5269   -0.7175 H   0  0  0  0  0  0  0  0  0  0  0  0
    2.2189   -1.1624    0.8226 H   0  0  0  0  0  0  0  0  0  0  0  0
    0.5582    0.4402    1.5268 H   0  0  0  0  0  0  0  0  0  0  0  0
   -0.1213    0.4825   -1.4969 H   0  0  0  0  0  0  0  0  0  0  0  0
   -0.4280    1.7043   -0.2131 H   0  0  0  0  0  0  0  0  0  0  0  0
   -3.2682    0.3054   -1.2558 H   0  0  0  0  0  0  0  0  0  0  0  0
   -2.9207    1.5889   -0.0078 H   0  0  0  0  0  0  0  0  0  0  0  0
   -2.8546   -0.1516    1.7869 H   0  0  0  0  0  0  0  0  0  0  0  0
   -3.2022   -1.4661    0.5657 H   0  0  0  0  0  0  0  0  0  0  0  0
  1  2  1  0
  2  3  1  0
  3  4  1  0
  4  5  1  0
  5  6  1  0
  6  7  1  0
  7  8  1  0
  6  9  1  0
  9  4  1  0
  8  6  1  0
  1 10  1  0
  2 11  1  0
  2 12  1  0
  3 13  1  0
  3 14  1  0
  4 15  1  0
  5 16  1  0
  5 17  1  0
  7 18  1  0
  7 19  1  0
  8 20  1  0
  8 21  1  0
M  END
