
     RDKit          3D

 23 23  0  0  0  0  0  0  0  0999 V2000
   -2.0600   -0.4947   -1.5238 O   0  0  0  0  0  0  0  0  0  0  0  0
   -2.6452   -0.2761   -0.2799 C   0  0  0  0  0  0  0  0  0  0  0  0
   -1.9915    0.8159    0.4754 C   0  0  0  0  0  0  0  0  0  0  0  0
   -0.5608    0.6628    0.8173 C   0  0  0  0  0  0  0  0  0  0  0  0
   -0.0343   -0.4385    1.6463 C   0  0  0  0  0  0  0  0  0  0  0  0
    0.3390   -0.3240    0.1374 C   0  0  0  0  0  0  0  0  0  0  0  0
    1.7994    0.0847   -0.1011 C   0  0  0  0  0  0  0  0  0  0  0  0
    2.5251   -1.0543   -0.7971 C   0  0  0  0  0  0  0  0  0  0  0  0
    3.8383   -0.7297   -1.0300 O   0  0  0  0  0  0  0  0  0  0  0  0
   -2.7394   -0.7501   -2.2192 H   0  0  0  0  0  0  0  0  0  0  0  0
   -2.7253   -1.2333    0.2766 H   0  0  0  0  0  0  0  0  0  0  0  0
   -3.7095    0.0104   -0.5020 H   0  0  0  0  0  0  0  0  0  0  0  0
   -2.1435    1.7664   -0.1169 H   0  0  0  0  0  0  0  0  0  0  0  0
   -2.5705    0.9487    1.4338 H   0  0  0  0  0  0  0  0  0  0  0  0
   -0.0493    1.6553    1.0205 H   0  0  0  0  0  0  0  0  0  0  0  0
   -0.6112   -1.3374    1.8862 H   0  0  0  0  0  0  0  0  0  0  0  0
    0.7875   -0.2480    2.3664 H   0  0  0  0  0  0  0  0  0  0  0  0
   -0.0852   -1.0843   -0.5190 H   0  0  0  0  0  0  0  0  0  0  0  0
    1.8600    0.9804   -0.7584 H   0  0  0  0  0  0  0  0  0  0  0  0
    2.3022    0.2338    0.8749 H   0  0  0  0  0  0  0  0  0  0  0  0
    2.4985   -1.9290   -0.1084 H   0  0  0  0  0  0  0  0  0  0  0  0
    1.9729   -1.3099   -1.7302 H   0  0  0  0  0  0  0  0  0  0  0  0
    4.0027    0.2165   -1.2490 H   0  0  0  0  0  0  0  0  0  0  0  0
  1  2  1  0
  2  3  1  0
  3  4  1  0
  4  5  1  0
  5  6  1  0
  6  7  1  0
  7  8  1  0
  8  9  1  0
  6  4  1  0
  1 10  1  0
  2 11  1  0
  2 12  1  0
  3 13  1  0
  3 14  1  0
  4 15  1  0
  5 16  1  0
  5 17  1  0
  6 18  1  0
  7 19  1  0
  7 20  1  0
  8 21  1  0
  8 22  1  0
  9 23  1  0
M  END
