
     RDKit          3D

 18 18  0  0  0  0  0  0  0  0999 V2000
   -3.0543    1.0412    0.3778 O   0  0  0  0  0  0  0  0  0  0  0  0
   -2.0692    0.0848    0.6462 C   0  0  0  0  0  0  0  0  0  0  0  0
   -0.9254    0.3418   -0.2856 C   0  0  0  0  0  0  0  0  0  0  0  0
    0.2171   -0.6161   -0.1118 C   0  0  0  0  0  0  0  0  0  0  0  0
    1.2873   -0.2142   -1.1304 C   0  0  0  0  0  0  0  0  0  0  0  0
    2.3943   -0.8719   -0.5403 O   0  0  0  0  0  0  0  0  0  0  0  0
    2.2573   -0.3747    0.7744 C   0  0  0  0  0  0  0  0  0  0  0  0
    0.9086   -0.4528    1.0684 O   0  0  0  0  0  0  0  0  0  0  0  0
   -2.7850    1.6701   -0.3409 H   0  0  0  0  0  0  0  0  0  0  0  0
   -2.5261   -0.9117    0.4912 H   0  0  0  0  0  0  0  0  0  0  0  0
   -1.7975    0.1781    1.7154 H   0  0  0  0  0  0  0  0  0  0  0  0
   -1.2937    0.2899   -1.3147 H   0  0  0  0  0  0  0  0  0  0  0  0
   -0.5457    1.3589   -0.1115 H   0  0  0  0  0  0  0  0  0  0  0  0
   -0.0553   -1.6611   -0.2323 H   0  0  0  0  0  0  0  0  0  0  0  0
    1.5032    0.8620   -1.0400 H   0  0  0  0  0  0  0  0  0  0  0  0
    1.0710   -0.5709   -2.1307 H   0  0  0  0  0  0  0  0  0  0  0  0
    2.9073   -0.8766    1.4858 H   0  0  0  0  0  0  0  0  0  0  0  0
    2.5059    0.7232    0.6791 H   0  0  0  0  0  0  0  0  0  0  0  0
  1  2  1  0
  2  3  1  0
  3  4  1  0
  4  5  1  0
  5  6  1  0
  6  7  1  0
  7  8  1  0
  8  4  1  0
  1  9  1  0
  2 10  1  0
  2 11  1  0
  3 12  1  0
  3 13  1  0
  4 14  1  0
  5 15  1  0
  5 16  1  0
  7 17  1  0
  7 18  1  0
M  END
