
     RDKit          3D

 21 21  0  0  0  0  0  0  0  0999 V2000
    2.6147   -1.2534   -0.0807 O   0  0  0  0  0  0  0  0  0  0  0  0
    2.3877   -0.2502    0.8364 C   0  0  0  0  0  0  0  0  0  0  0  0
    0.9347   -0.0260    1.1384 C   0  0  0  0  0  0  0  0  0  0  0  0
    0.1182    0.3552   -0.0492 C   0  0  0  0  0  0  0  0  0  0  0  0
   -0.0139   -0.5126   -1.2423 C   0  0  0  0  0  0  0  0  0  0  0  0
   -0.1825    0.0910   -2.4951 O   0  0  0  0  0  0  0  0  0  0  0  0
   -1.1122   -0.5464   -0.2913 C   0  0  0  0  0  0  0  0  0  0  0  0
   -2.3844    0.2368   -0.4540 C   0  0  0  0  0  0  0  0  0  0  0  0
   -2.5688    0.9664    0.7427 O   0  0  0  0  0  0  0  0  0  0  0  0
    2.8615   -2.1103    0.3929 H   0  0  0  0  0  0  0  0  0  0  0  0
    2.8611    0.6759    0.4328 H   0  0  0  0  0  0  0  0  0  0  0  0
    2.9125   -0.4616    1.7901 H   0  0  0  0  0  0  0  0  0  0  0  0
    0.8811    0.8059    1.8794 H   0  0  0  0  0  0  0  0  0  0  0  0
    0.5370   -0.9207    1.6625 H   0  0  0  0  0  0  0  0  0  0  0  0
    0.0093    1.4361   -0.2347 H   0  0  0  0  0  0  0  0  0  0  0  0
    0.6081   -1.4510   -1.3328 H   0  0  0  0  0  0  0  0  0  0  0  0
   -1.1497    0.1652   -2.7033 H   0  0  0  0  0  0  0  0  0  0  0  0
   -1.2163   -1.4404    0.3633 H   0  0  0  0  0  0  0  0  0  0  0  0
   -3.2641   -0.3799   -0.6302 H   0  0  0  0  0  0  0  0  0  0  0  0
   -2.3198    0.9970   -1.2541 H   0  0  0  0  0  0  0  0  0  0  0  0
   -2.5142    0.3503    1.5291 H   0  0  0  0  0  0  0  0  0  0  0  0
  1  2  1  0
  2  3  1  0
  3  4  1  0
  4  5  1  0
  5  6  1  0
  5  7  1  0
  7  8  1  0
  8  9  1  0
  7  4  1  0
  1 10  1  0
  2 11  1  0
  2 12  1  0
  3 13  1  0
  3 14  1  0
  4 15  1  0
  5 16  1  0
  6 17  1  0
  7 18  1  0
  8 19  1  0
  8 20  1  0
  9 21  1  0
M  END
