
     RDKit          3D

 23 24  0  0  0  0  0  0  0  0999 V2000
   -3.4213    1.0496    0.6070 O   0  0  0  0  0  0  0  0  0  0  0  0
   -2.3567    0.1238    0.6496 C   0  0  0  0  0  0  0  0  0  0  0  0
   -1.7542    0.1160   -0.7341 C   0  0  0  0  0  0  0  0  0  0  0  0
   -0.5863   -0.8480   -0.8282 C   0  0  0  0  0  0  0  0  0  0  0  0
    0.5142   -0.5173    0.1089 C   0  0  0  0  0  0  0  0  0  0  0  0
    1.1934    0.7949    0.0172 C   0  0  0  0  0  0  0  0  0  0  0  0
    2.3028    0.1214    0.8022 C   0  0  0  0  0  0  0  0  0  0  0  0
    1.9204   -0.8843   -0.2655 C   0  0  0  0  0  0  0  0  0  0  0  0
    1.9153    0.2803   -1.1805 C   0  0  0  0  0  0  0  0  0  0  0  0
   -3.1132    1.7844    0.0354 H   0  0  0  0  0  0  0  0  0  0  0  0
   -2.7186   -0.8623    0.9694 H   0  0  0  0  0  0  0  0  0  0  0  0
   -1.6133    0.5662    1.3467 H   0  0  0  0  0  0  0  0  0  0  0  0
   -2.5419   -0.2962   -1.4162 H   0  0  0  0  0  0  0  0  0  0  0  0
   -1.4959    1.1413   -1.0006 H   0  0  0  0  0  0  0  0  0  0  0  0
   -0.2567   -1.0256   -1.8519 H   0  0  0  0  0  0  0  0  0  0  0  0
   -1.0223   -1.8383   -0.4892 H   0  0  0  0  0  0  0  0  0  0  0  0
    0.3308   -0.8916    1.1633 H   0  0  0  0  0  0  0  0  0  0  0  0
    0.8345    1.7124    0.1834 H   0  0  0  0  0  0  0  0  0  0  0  0
    2.0021   -0.1943    1.8015 H   0  0  0  0  0  0  0  0  0  0  0  0
    3.3070    0.5328    0.6622 H   0  0  0  0  0  0  0  0  0  0  0  0
    2.3070   -1.7962   -0.3812 H   0  0  0  0  0  0  0  0  0  0  0  0
    2.8749    0.8283   -1.3023 H   0  0  0  0  0  0  0  0  0  0  0  0
    1.3782    0.1027   -2.1057 H   0  0  0  0  0  0  0  0  0  0  0  0
  1  2  1  0
  2  3  1  0
  3  4  1  0
  4  5  1  0
  5  6  1  0
  6  7  1  0
  7  8  1  0
  8  9  1  0
  8  5  1  0
  9  6  1  0
  1 10  1  0
  2 11  1  0
  2 12  1  0
  3 13  1  0
  3 14  1  0
  4 15  1  0
  4 16  1  0
  5 17  1  0
  6 18  1  0
  7 19  1  0
  7 20  1  0
  8 21  1  0
  9 22  1  0
  9 23  1  0
M  END
