
     RDKit          3D

 21 21  0  0  0  0  0  0  0  0999 V2000
   -3.2452   -0.4012    0.4775 O   0  0  0  0  0  0  0  0  0  0  0  0
   -1.8952   -0.1387    0.7384 C   0  0  0  0  0  0  0  0  0  0  0  0
   -1.1547   -0.3164   -0.5601 C   0  0  0  0  0  0  0  0  0  0  0  0
    0.3159   -0.0679   -0.4434 C   0  0  0  0  0  0  0  0  0  0  0  0
    0.6593    1.3096    0.0129 C   0  0  0  0  0  0  0  0  0  0  0  0
    0.1895    2.2998   -0.8401 O   0  0  0  0  0  0  0  0  0  0  0  0
    1.0391   -1.1130    0.3284 C   0  0  0  0  0  0  0  0  0  0  0  0
    2.5279   -0.9955    0.5314 C   0  0  0  0  0  0  0  0  0  0  0  0
    1.6725   -0.5045    1.5162 O   0  0  0  0  0  0  0  0  0  0  0  0
   -3.3852   -0.9268   -0.3280 H   0  0  0  0  0  0  0  0  0  0  0  0
   -1.5190   -0.8927    1.4560 H   0  0  0  0  0  0  0  0  0  0  0  0
   -1.8426    0.8862    1.1180 H   0  0  0  0  0  0  0  0  0  0  0  0
   -1.5635    0.4043   -1.2963 H   0  0  0  0  0  0  0  0  0  0  0  0
   -1.3123   -1.3167   -0.9576 H   0  0  0  0  0  0  0  0  0  0  0  0
    0.7092   -0.1412   -1.5046 H   0  0  0  0  0  0  0  0  0  0  0  0
    0.2223    1.5440    1.0222 H   0  0  0  0  0  0  0  0  0  0  0  0
    1.7484    1.4773    0.1275 H   0  0  0  0  0  0  0  0  0  0  0  0
    0.1867    3.1630   -0.3187 H   0  0  0  0  0  0  0  0  0  0  0  0
    0.5478   -2.0806    0.5616 H   0  0  0  0  0  0  0  0  0  0  0  0
    3.0713   -1.9031    0.8231 H   0  0  0  0  0  0  0  0  0  0  0  0
    3.0278   -0.2859   -0.1395 H   0  0  0  0  0  0  0  0  0  0  0  0
  1  2  1  0
  2  3  1  0
  3  4  1  0
  4  5  1  0
  5  6  1  0
  4  7  1  0
  7  8  1  0
  8  9  1  0
  9  7  1  0
  1 10  1  0
  2 11  1  0
  2 12  1  0
  3 13  1  0
  3 14  1  0
  4 15  1  0
  5 16  1  0
  5 17  1  0
  6 18  1  0
  7 19  1  0
  8 20  1  0
  8 21  1  0
M  END
