
     RDKit          3D

 18 18  0  0  0  0  0  0  0  0999 V2000
    2.4674   -0.8645   -0.8254 O   0  0  0  0  0  0  0  0  0  0  0  0
    2.0246   -0.2182    0.3152 C   0  0  0  0  0  0  0  0  0  0  0  0
    0.8625    0.7202   -0.0407 C   0  0  0  0  0  0  0  0  0  0  0  0
   -0.2162   -0.1681   -0.6218 C   0  0  0  0  0  0  0  0  0  0  0  0
   -0.5911   -1.1096    0.3375 O   0  0  0  0  0  0  0  0  0  0  0  0
   -1.9035   -0.8959   -0.0150 C   0  0  0  0  0  0  0  0  0  0  0  0
   -1.5809    0.4188   -0.6945 C   0  0  0  0  0  0  0  0  0  0  0  0
   -1.8258    1.5342    0.0809 O   0  0  0  0  0  0  0  0  0  0  0  0
    3.4493   -1.0510   -0.6780 H   0  0  0  0  0  0  0  0  0  0  0  0
    1.6752   -1.0038    1.0173 H   0  0  0  0  0  0  0  0  0  0  0  0
    2.8299    0.3269    0.8311 H   0  0  0  0  0  0  0  0  0  0  0  0
    1.2125    1.4783   -0.7413 H   0  0  0  0  0  0  0  0  0  0  0  0
    0.4887    1.1894    0.8895 H   0  0  0  0  0  0  0  0  0  0  0  0
    0.0954   -0.6074   -1.5937 H   0  0  0  0  0  0  0  0  0  0  0  0
   -2.2437   -1.6920   -0.7131 H   0  0  0  0  0  0  0  0  0  0  0  0
   -2.5621   -0.7610    0.8875 H   0  0  0  0  0  0  0  0  0  0  0  0
   -2.0596    0.4471   -1.6926 H   0  0  0  0  0  0  0  0  0  0  0  0
   -2.1225    2.2567   -0.5229 H   0  0  0  0  0  0  0  0  0  0  0  0
  1  2  1  0
  2  3  1  0
  3  4  1  0
  4  5  1  0
  5  6  1  0
  6  7  1  0
  7  8  1  0
  7  4  1  0
  1  9  1  0
  2 10  1  0
  2 11  1  0
  3 12  1  0
  3 13  1  0
  4 14  1  0
  6 15  1  0
  6 16  1  0
  7 17  1  0
  8 18  1  0
M  END
