
     RDKit          3D

 19 19  0  0  0  0  0  0  0  0999 V2000
    3.2142   -1.4467    0.2360 O   0  0  0  0  0  0  0  0  0  0  0  0
    2.8482   -0.6869   -0.8666 C   0  0  0  0  0  0  0  0  0  0  0  0
    1.3567   -0.3814   -0.7025 C   0  0  0  0  0  0  0  0  0  0  0  0
    1.1757    0.3823    0.5853 C   0  0  0  0  0  0  0  0  0  0  0  0
   -0.2596    0.6635    0.7208 C   0  0  0  0  0  0  0  0  0  0  0  0
   -1.4428    0.9167    0.8357 C   0  0  0  0  0  0  0  0  0  0  0  0
   -2.8743    1.2056    0.9642 C   0  0  0  0  0  0  0  0  0  0  0  0
   -3.8401    0.1596    0.9908 C   0  0  0  0  0  0  0  0  0  0  0  0
   -3.4586    0.6561    2.2177 O   0  0  0  0  0  0  0  0  0  0  0  0
    3.4263   -2.3628   -0.0804 H   0  0  0  0  0  0  0  0  0  0  0  0
    3.4305    0.2295   -0.9970 H   0  0  0  0  0  0  0  0  0  0  0  0
    2.9159   -1.2813   -1.8161 H   0  0  0  0  0  0  0  0  0  0  0  0
    0.7678   -1.3116   -0.7198 H   0  0  0  0  0  0  0  0  0  0  0  0
    1.1058    0.2981   -1.5586 H   0  0  0  0  0  0  0  0  0  0  0  0
    1.7527    1.3418    0.4831 H   0  0  0  0  0  0  0  0  0  0  0  0
    1.5645   -0.1901    1.4422 H   0  0  0  0  0  0  0  0  0  0  0  0
   -3.2025    2.2762    0.8814 H   0  0  0  0  0  0  0  0  0  0  0  0
   -3.5713   -0.8667    0.6841 H   0  0  0  0  0  0  0  0  0  0  0  0
   -4.9091    0.3980    0.7351 H   0  0  0  0  0  0  0  0  0  0  0  0
  1  2  1  0
  2  3  1  0
  3  4  1  0
  4  5  1  0
  5  6  3  0
  6  7  1  0
  7  8  1  0
  8  9  1  0
  9  7  1  0
  1 10  1  0
  2 11  1  0
  2 12  1  0
  3 13  1  0
  3 14  1  0
  4 15  1  0
  4 16  1  0
  7 17  1  0
  8 18  1  0
  8 19  1  0
M  END
