
     RDKit          3D

 21 22  0  0  0  0  0  0  0  0999 V2000
   -2.4534    0.4668    1.6548 O   0  0  0  0  0  0  0  0  0  0  0  0
   -2.5714    0.2631    0.2612 C   0  0  0  0  0  0  0  0  0  0  0  0
   -1.5820   -0.7916   -0.1176 C   0  0  0  0  0  0  0  0  0  0  0  0
   -0.1813   -0.3937    0.2051 C   0  0  0  0  0  0  0  0  0  0  0  0
    0.2822    0.7286    0.7620 C   0  0  0  0  0  0  0  0  0  0  0  0
    1.7133    0.6050    0.8565 C   0  0  0  0  0  0  0  0  0  0  0  0
    2.8362    0.7697    0.0434 C   0  0  0  0  0  0  0  0  0  0  0  0
    1.8916   -0.0713   -0.5441 C   0  0  0  0  0  0  0  0  0  0  0  0
    1.0540   -1.2386   -0.1078 C   0  0  0  0  0  0  0  0  0  0  0  0
   -3.3196    0.9043    1.9211 H   0  0  0  0  0  0  0  0  0  0  0  0
   -2.4927    1.1850   -0.3089 H   0  0  0  0  0  0  0  0  0  0  0  0
   -3.5975   -0.1325    0.1158 H   0  0  0  0  0  0  0  0  0  0  0  0
   -1.6333   -0.9158   -1.2232 H   0  0  0  0  0  0  0  0  0  0  0  0
   -1.8608   -1.7690    0.3258 H   0  0  0  0  0  0  0  0  0  0  0  0
   -0.4198    1.5150    1.0442 H   0  0  0  0  0  0  0  0  0  0  0  0
    1.9236   -0.0602    1.7627 H   0  0  0  0  0  0  0  0  0  0  0  0
    3.0321    1.8001   -0.3680 H   0  0  0  0  0  0  0  0  0  0  0  0
    3.8361    0.3327    0.3235 H   0  0  0  0  0  0  0  0  0  0  0  0
    1.3260    0.4082   -1.4067 H   0  0  0  0  0  0  0  0  0  0  0  0
    0.8498   -1.9643   -0.8882 H   0  0  0  0  0  0  0  0  0  0  0  0
    1.3669   -1.6416    0.8612 H   0  0  0  0  0  0  0  0  0  0  0  0
  1  2  1  0
  2  3  1  0
  3  4  1  0
  4  5  2  0
  5  6  1  0
  6  7  1  0
  7  8  1  0
  8  9  1  0
  9  4  1  0
  8  6  1  0
  1 10  1  0
  2 11  1  0
  2 12  1  0
  3 13  1  0
  3 14  1  0
  5 15  1  0
  6 16  1  0
  7 17  1  0
  7 18  1  0
  8 19  1  0
  9 20  1  0
  9 21  1  0
M  END
