
     RDKit          3D

 20 20  0  0  0  0  0  0  0  0999 V2000
    1.6876    0.4312   -1.4626 O   0  0  0  0  0  0  0  0  0  0  0  0
    1.8705   -0.4198   -0.3721 C   0  0  0  0  0  0  0  0  0  0  0  0
    0.9926    0.0556    0.7579 C   0  0  0  0  0  0  0  0  0  0  0  0
   -0.4625    0.0662    0.4248 C   0  0  0  0  0  0  0  0  0  0  0  0
   -1.1629   -1.2035    0.0329 C   0  0  0  0  0  0  0  0  0  0  0  0
   -0.5726   -1.7465   -1.1184 O   0  0  0  0  0  0  0  0  0  0  0  0
   -1.2719    1.0766    1.2381 C   0  0  0  0  0  0  0  0  0  0  0  0
   -1.0166    1.3084   -0.2440 C   0  0  0  0  0  0  0  0  0  0  0  0
    2.5318    0.4185   -1.9789 H   0  0  0  0  0  0  0  0  0  0  0  0
    2.9250   -0.2736   -0.0382 H   0  0  0  0  0  0  0  0  0  0  0  0
    1.7294   -1.4758   -0.6183 H   0  0  0  0  0  0  0  0  0  0  0  0
    1.2976    1.0885    1.0237 H   0  0  0  0  0  0  0  0  0  0  0  0
    1.1642   -0.5542    1.6747 H   0  0  0  0  0  0  0  0  0  0  0  0
   -1.1847   -1.9661    0.8152 H   0  0  0  0  0  0  0  0  0  0  0  0
   -2.2113   -0.9637   -0.2380 H   0  0  0  0  0  0  0  0  0  0  0  0
   -1.1355   -1.6281   -1.9173 H   0  0  0  0  0  0  0  0  0  0  0  0
   -2.3022    0.7563    1.5414 H   0  0  0  0  0  0  0  0  0  0  0  0
   -0.7469    1.7449    1.9233 H   0  0  0  0  0  0  0  0  0  0  0  0
   -1.8709    1.2050   -0.9505 H   0  0  0  0  0  0  0  0  0  0  0  0
   -0.2607    2.0801   -0.4934 H   0  0  0  0  0  0  0  0  0  0  0  0
  1  2  1  0
  2  3  1  0
  3  4  1  0
  4  5  1  0
  5  6  1  0
  4  7  1  0
  7  8  1  0
  8  4  1  0
  1  9  1  0
  2 10  1  0
  2 11  1  0
  3 12  1  0
  3 13  1  0
  5 14  1  0
  5 15  1  0
  6 16  1  0
  7 17  1  0
  7 18  1  0
  8 19  1  0
  8 20  1  0
M  END
