
     RDKit          3D

 19 20  0  0  0  0  0  0  0  0999 V2000
   -3.2222   -1.3929    0.2833 O   0  0  0  0  0  0  0  0  0  0  0  0
   -2.2829   -0.4417   -0.0437 C   0  0  0  0  0  0  0  0  0  0  0  0
   -1.0300   -1.1600   -0.5597 C   0  0  0  0  0  0  0  0  0  0  0  0
    0.0435   -0.1543   -0.9367 C   0  0  0  0  0  0  0  0  0  0  0  0
    1.1628   -0.8281   -1.3989 O   0  0  0  0  0  0  0  0  0  0  0  0
    1.9283   -0.0424   -0.5665 C   0  0  0  0  0  0  0  0  0  0  0  0
    1.8953   -0.1681    0.9057 C   0  0  0  0  0  0  0  0  0  0  0  0
    2.8091    0.6620    1.5637 O   0  0  0  0  0  0  0  0  0  0  0  0
    0.7714    0.4682    0.1924 C   0  0  0  0  0  0  0  0  0  0  0  0
   -3.6583   -1.1586    1.1219 H   0  0  0  0  0  0  0  0  0  0  0  0
   -2.7086    0.2188   -0.8039 H   0  0  0  0  0  0  0  0  0  0  0  0
   -2.0093    0.1142    0.8737 H   0  0  0  0  0  0  0  0  0  0  0  0
   -0.6461   -1.8353    0.2132 H   0  0  0  0  0  0  0  0  0  0  0  0
   -1.3445   -1.7461   -1.4306 H   0  0  0  0  0  0  0  0  0  0  0  0
   -0.3919    0.5868   -1.6469 H   0  0  0  0  0  0  0  0  0  0  0  0
    2.6491    0.6182   -1.0756 H   0  0  0  0  0  0  0  0  0  0  0  0
    1.7361   -1.1334    1.4158 H   0  0  0  0  0  0  0  0  0  0  0  0
    3.7055    0.1999    1.5028 H   0  0  0  0  0  0  0  0  0  0  0  0
    0.5925    1.5240    0.3900 H   0  0  0  0  0  0  0  0  0  0  0  0
  1  2  1  0
  2  3  1  0
  3  4  1  0
  4  5  1  0
  5  6  1  0
  6  7  1  0
  7  8  1  0
  7  9  1  0
  9  4  1  0
  9  6  1  0
  1 10  1  0
  2 11  1  0
  2 12  1  0
  3 13  1  0
  3 14  1  0
  4 15  1  0
  6 16  1  0
  7 17  1  0
  8 18  1  0
  9 19  1  0
M  END
