
     RDKit          3D

 23 24  0  0  0  0  0  0  0  0999 V2000
    3.4886   -0.7157   -0.7839 O   0  0  0  0  0  0  0  0  0  0  0  0
    2.4926   -0.0965   -0.0017 C   0  0  0  0  0  0  0  0  0  0  0  0
    1.1360   -0.6449   -0.3357 C   0  0  0  0  0  0  0  0  0  0  0  0
    0.1173    0.0550    0.5312 C   0  0  0  0  0  0  0  0  0  0  0  0
    0.1319    1.5488    0.2816 C   0  0  0  0  0  0  0  0  0  0  0  0
   -1.3523    1.4963   -0.0962 C   0  0  0  0  0  0  0  0  0  0  0  0
   -1.2869    0.0306    0.0625 C   0  0  0  0  0  0  0  0  0  0  0  0
   -2.3462   -0.7847    0.6587 C   0  0  0  0  0  0  0  0  0  0  0  0
   -1.8691   -0.9559   -0.8186 C   0  0  0  0  0  0  0  0  0  0  0  0
    3.8842   -1.4553   -0.2466 H   0  0  0  0  0  0  0  0  0  0  0  0
    2.6812   -0.3491    1.0807 H   0  0  0  0  0  0  0  0  0  0  0  0
    2.5115    0.9883   -0.1178 H   0  0  0  0  0  0  0  0  0  0  0  0
    1.0950   -1.7401   -0.2043 H   0  0  0  0  0  0  0  0  0  0  0  0
    0.9003   -0.3727   -1.3937 H   0  0  0  0  0  0  0  0  0  0  0  0
    0.2895   -0.2348    1.5967 H   0  0  0  0  0  0  0  0  0  0  0  0
    0.7371    1.8883   -0.5684 H   0  0  0  0  0  0  0  0  0  0  0  0
    0.3437    2.0799    1.2240 H   0  0  0  0  0  0  0  0  0  0  0  0
   -1.5749    1.9078   -1.0999 H   0  0  0  0  0  0  0  0  0  0  0  0
   -1.9411    1.9704    0.7081 H   0  0  0  0  0  0  0  0  0  0  0  0
   -3.3362   -0.3009    0.7863 H   0  0  0  0  0  0  0  0  0  0  0  0
   -2.1298   -1.6475    1.3280 H   0  0  0  0  0  0  0  0  0  0  0  0
   -2.6368   -0.7372   -1.5662 H   0  0  0  0  0  0  0  0  0  0  0  0
   -1.3356   -1.9302   -1.0248 H   0  0  0  0  0  0  0  0  0  0  0  0
  1  2  1  0
  2  3  1  0
  3  4  1  0
  4  5  1  0
  5  6  1  0
  6  7  1  0
  7  8  1  0
  8  9  1  0
  7  4  1  0
  9  7  1  0
  1 10  1  0
  2 11  1  0
  2 12  1  0
  3 13  1  0
  3 14  1  0
  4 15  1  0
  5 16  1  0
  5 17  1  0
  6 18  1  0
  6 19  1  0
  8 20  1  0
  8 21  1  0
  9 22  1  0
  9 23  1  0
M  END
