
     RDKit          3D

 19 21  0  0  0  0  0  0  0  0999 V2000
    2.9358    0.0580    0.6083 O   0  0  0  0  0  0  0  0  0  0  0  0
    2.1344    1.0458    0.0436 C   0  0  0  0  0  0  0  0  0  0  0  0
    0.7204    0.8005    0.5777 C   0  0  0  0  0  0  0  0  0  0  0  0
    0.2771   -0.5850    0.1541 C   0  0  0  0  0  0  0  0  0  0  0  0
   -1.0232   -1.1539    0.4923 C   0  0  0  0  0  0  0  0  0  0  0  0
   -2.2820   -0.3532    0.4343 C   0  0  0  0  0  0  0  0  0  0  0  0
   -2.1601    1.0059    0.3473 O   0  0  0  0  0  0  0  0  0  0  0  0
   -1.9061    0.2716   -0.7792 C   0  0  0  0  0  0  0  0  0  0  0  0
   -0.7211   -0.6147   -0.9356 C   0  0  0  0  0  0  0  0  0  0  0  0
    3.1504   -0.6735    0.0062 H   0  0  0  0  0  0  0  0  0  0  0  0
    2.0957    0.9080   -1.0582 H   0  0  0  0  0  0  0  0  0  0  0  0
    2.4717    2.0531    0.3113 H   0  0  0  0  0  0  0  0  0  0  0  0
    0.0762    1.6067    0.1378 H   0  0  0  0  0  0  0  0  0  0  0  0
    0.7642    0.9252    1.6691 H   0  0  0  0  0  0  0  0  0  0  0  0
    1.1374   -1.3201    0.1333 H   0  0  0  0  0  0  0  0  0  0  0  0
   -1.1078   -2.2547    0.5992 H   0  0  0  0  0  0  0  0  0  0  0  0
   -3.2608   -0.8428    0.5382 H   0  0  0  0  0  0  0  0  0  0  0  0
   -2.5559    0.5154   -1.6414 H   0  0  0  0  0  0  0  0  0  0  0  0
   -0.7464   -1.3924   -1.7039 H   0  0  0  0  0  0  0  0  0  0  0  0
  1  2  1  0
  2  3  1  0
  3  4  1  0
  4  5  1  0
  5  6  1  0
  6  7  1  0
  7  8  1  0
  8  9  1  0
  9  4  1  0
  9  5  1  0
  8  6  1  0
  1 10  1  0
  2 11  1  0
  2 12  1  0
  3 13  1  0
  3 14  1  0
  4 15  1  0
  5 16  1  0
  6 17  1  0
  8 18  1  0
  9 19  1  0
M  END
