
     RDKit          3D

 20 20  0  0  0  0  0  0  0  0999 V2000
   -2.6261   -0.2087    1.0847 O   0  0  0  0  0  0  0  0  0  0  0  0
   -2.3677   -0.4924   -0.2481 C   0  0  0  0  0  0  0  0  0  0  0  0
   -1.4440    0.5490   -0.8199 C   0  0  0  0  0  0  0  0  0  0  0  0
   -0.1210    0.6014   -0.0894 C   0  0  0  0  0  0  0  0  0  0  0  0
    0.6117   -0.7200   -0.1588 C   0  0  0  0  0  0  0  0  0  0  0  0
    1.9171   -0.6748    0.5599 C   0  0  0  0  0  0  0  0  0  0  0  0
    2.9567    0.2385    0.1925 C   0  0  0  0  0  0  0  0  0  0  0  0
    2.0329    0.5924    1.3246 O   0  0  0  0  0  0  0  0  0  0  0  0
   -2.3900    0.7323    1.2869 H   0  0  0  0  0  0  0  0  0  0  0  0
   -3.3378   -0.3892   -0.8028 H   0  0  0  0  0  0  0  0  0  0  0  0
   -2.0160   -1.5171   -0.3498 H   0  0  0  0  0  0  0  0  0  0  0  0
   -1.9420    1.5322   -0.6865 H   0  0  0  0  0  0  0  0  0  0  0  0
   -1.2966    0.3535   -1.9007 H   0  0  0  0  0  0  0  0  0  0  0  0
    0.5365    1.3488   -0.5796 H   0  0  0  0  0  0  0  0  0  0  0  0
   -0.2709    0.9397    0.9409 H   0  0  0  0  0  0  0  0  0  0  0  0
   -0.0472   -1.5457    0.1823 H   0  0  0  0  0  0  0  0  0  0  0  0
    0.8337   -0.9655   -1.2364 H   0  0  0  0  0  0  0  0  0  0  0  0
    2.1831   -1.5393    1.2173 H   0  0  0  0  0  0  0  0  0  0  0  0
    3.9609    0.1404    0.6460 H   0  0  0  0  0  0  0  0  0  0  0  0
    2.8266    1.0245   -0.5630 H   0  0  0  0  0  0  0  0  0  0  0  0
  1  2  1  0
  2  3  1  0
  3  4  1  0
  4  5  1  0
  5  6  1  0
  6  7  1  0
  7  8  1  0
  8  6  1  0
  1  9  1  0
  2 10  1  0
  2 11  1  0
  3 12  1  0
  3 13  1  0
  4 14  1  0
  4 15  1  0
  5 16  1  0
  5 17  1  0
  6 18  1  0
  7 19  1  0
  7 20  1  0
M  END
