
     RDKit          3D

 23 23  0  0  0  0  0  0  0  0999 V2000
    2.6252    0.9848    0.4323 O   0  0  0  0  0  0  0  0  0  0  0  0
    2.5170   -0.3891    0.7049 C   0  0  0  0  0  0  0  0  0  0  0  0
    1.3076   -0.9326   -0.0481 C   0  0  0  0  0  0  0  0  0  0  0  0
    0.1172   -0.1630    0.4724 C   0  0  0  0  0  0  0  0  0  0  0  0
    0.2126    1.3439    0.2502 C   0  0  0  0  0  0  0  0  0  0  0  0
   -1.3085    1.2853    0.1021 C   0  0  0  0  0  0  0  0  0  0  0  0
   -1.0738   -0.1228   -0.4637 C   0  0  0  0  0  0  0  0  0  0  0  0
   -2.1778   -1.0877   -0.0874 C   0  0  0  0  0  0  0  0  0  0  0  0
   -2.6120   -0.7473    1.1920 O   0  0  0  0  0  0  0  0  0  0  0  0
    3.5351    1.2629    0.7085 H   0  0  0  0  0  0  0  0  0  0  0  0
    3.4391   -0.9222    0.4502 H   0  0  0  0  0  0  0  0  0  0  0  0
    2.2530   -0.4590    1.7858 H   0  0  0  0  0  0  0  0  0  0  0  0
    1.1526   -1.9915    0.2216 H   0  0  0  0  0  0  0  0  0  0  0  0
    1.4359   -0.7562   -1.1288 H   0  0  0  0  0  0  0  0  0  0  0  0
   -0.1899   -0.4692    1.4785 H   0  0  0  0  0  0  0  0  0  0  0  0
    0.5702    1.9210    1.1038 H   0  0  0  0  0  0  0  0  0  0  0  0
    0.6658    1.5411   -0.7282 H   0  0  0  0  0  0  0  0  0  0  0  0
   -1.7577    1.1971    1.1080 H   0  0  0  0  0  0  0  0  0  0  0  0
   -1.7417    1.9948   -0.5940 H   0  0  0  0  0  0  0  0  0  0  0  0
   -0.7888   -0.1234   -1.5291 H   0  0  0  0  0  0  0  0  0  0  0  0
   -2.9840   -1.0701   -0.8367 H   0  0  0  0  0  0  0  0  0  0  0  0
   -1.7855   -2.1405   -0.0605 H   0  0  0  0  0  0  0  0  0  0  0  0
   -3.4117   -0.1561    1.0713 H   0  0  0  0  0  0  0  0  0  0  0  0
  1  2  1  0
  2  3  1  0
  3  4  1  0
  4  5  1  0
  5  6  1  0
  6  7  1  0
  7  8  1  0
  8  9  1  0
  7  4  1  0
  1 10  1  0
  2 11  1  0
  2 12  1  0
  3 13  1  0
  3 14  1  0
  4 15  1  0
  5 16  1  0
  5 17  1  0
  6 18  1  0
  6 19  1  0
  7 20  1  0
  8 21  1  0
  8 22  1  0
  9 23  1  0
M  END
