
     RDKit          3D

 18 19  0  0  0  0  0  0  0  0999 V2000
    3.1586   -0.0335   -0.3760 O   0  0  0  0  0  0  0  0  0  0  0  0
    1.8633    0.5252   -0.3944 C   0  0  0  0  0  0  0  0  0  0  0  0
    0.9840   -0.4426    0.3837 C   0  0  0  0  0  0  0  0  0  0  0  0
   -0.4133    0.0879    0.4059 C   0  0  0  0  0  0  0  0  0  0  0  0
   -1.4510   -0.7047    1.1190 C   0  0  0  0  0  0  0  0  0  0  0  0
   -1.5114   -0.6253   -0.3506 C   0  0  0  0  0  0  0  0  0  0  0  0
   -1.9031    0.7375   -0.8881 C   0  0  0  0  0  0  0  0  0  0  0  0
   -0.7402    1.2266   -0.3067 O   0  0  0  0  0  0  0  0  0  0  0  0
    3.5781    0.3048    0.4606 H   0  0  0  0  0  0  0  0  0  0  0  0
    1.4503    0.5857   -1.4106 H   0  0  0  0  0  0  0  0  0  0  0  0
    1.9044    1.5110    0.0795 H   0  0  0  0  0  0  0  0  0  0  0  0
    1.0809   -1.4641   -0.0213 H   0  0  0  0  0  0  0  0  0  0  0  0
    1.3503   -0.4454    1.4523 H   0  0  0  0  0  0  0  0  0  0  0  0
   -2.2775   -0.1606    1.6544 H   0  0  0  0  0  0  0  0  0  0  0  0
   -1.1215   -1.6520    1.5503 H   0  0  0  0  0  0  0  0  0  0  0  0
   -1.1590   -1.4081   -1.0189 H   0  0  0  0  0  0  0  0  0  0  0  0
   -2.8075    1.1298   -0.3698 H   0  0  0  0  0  0  0  0  0  0  0  0
   -1.9856    0.8277   -1.9693 H   0  0  0  0  0  0  0  0  0  0  0  0
  1  2  1  0
  2  3  1  0
  3  4  1  0
  4  5  1  0
  5  6  1  0
  6  7  1  0
  7  8  1  0
  6  4  1  0
  8  4  1  0
  1  9  1  0
  2 10  1  0
  2 11  1  0
  3 12  1  0
  3 13  1  0
  5 14  1  0
  5 15  1  0
  6 16  1  0
  7 17  1  0
  7 18  1  0
M  END
