
     RDKit          3D

 23 23  0  0  0  0  0  0  0  0999 V2000
   -3.0100    0.0794    0.1666 O   0  0  0  0  0  0  0  0  0  0  0  0
   -2.0997    0.8515   -0.5481 C   0  0  0  0  0  0  0  0  0  0  0  0
   -0.7783    0.9328    0.1229 C   0  0  0  0  0  0  0  0  0  0  0  0
   -0.0791   -0.3538    0.3380 C   0  0  0  0  0  0  0  0  0  0  0  0
    1.2740   -0.2113    1.0316 C   0  0  0  0  0  0  0  0  0  0  0  0
    2.2117    0.6503    0.2246 C   0  0  0  0  0  0  0  0  0  0  0  0
    2.4542    0.1292   -1.0372 O   0  0  0  0  0  0  0  0  0  0  0  0
   -0.6952   -1.6675    0.3392 C   0  0  0  0  0  0  0  0  0  0  0  0
   -0.0073   -1.2343   -0.9245 C   0  0  0  0  0  0  0  0  0  0  0  0
   -2.8189    0.0651    1.1277 H   0  0  0  0  0  0  0  0  0  0  0  0
   -2.0077    0.5424   -1.5968 H   0  0  0  0  0  0  0  0  0  0  0  0
   -2.5303    1.8874   -0.5692 H   0  0  0  0  0  0  0  0  0  0  0  0
   -0.1163    1.6122   -0.4534 H   0  0  0  0  0  0  0  0  0  0  0  0
   -0.9326    1.4503    1.1100 H   0  0  0  0  0  0  0  0  0  0  0  0
    1.7651   -1.1957    1.1681 H   0  0  0  0  0  0  0  0  0  0  0  0
    1.1051    0.2543    2.0043 H   0  0  0  0  0  0  0  0  0  0  0  0
    1.8190    1.6846    0.1870 H   0  0  0  0  0  0  0  0  0  0  0  0
    3.1647    0.7018    0.7886 H   0  0  0  0  0  0  0  0  0  0  0  0
    2.8632    0.8149   -1.6080 H   0  0  0  0  0  0  0  0  0  0  0  0
   -0.1491   -2.4854    0.8931 H   0  0  0  0  0  0  0  0  0  0  0  0
   -1.7569   -1.8902    0.2286 H   0  0  0  0  0  0  0  0  0  0  0  0
   -0.6375   -0.9563   -1.7845 H   0  0  0  0  0  0  0  0  0  0  0  0
    0.9619   -1.6616   -1.2085 H   0  0  0  0  0  0  0  0  0  0  0  0
  1  2  1  0
  2  3  1  0
  3  4  1  0
  4  5  1  0
  5  6  1  0
  6  7  1  0
  4  8  1  0
  8  9  1  0
  9  4  1  0
  1 10  1  0
  2 11  1  0
  2 12  1  0
  3 13  1  0
  3 14  1  0
  5 15  1  0
  5 16  1  0
  6 17  1  0
  6 18  1  0
  7 19  1  0
  8 20  1  0
  8 21  1  0
  9 22  1  0
  9 23  1  0
M  END
