
     RDKit          3D

 21 21  0  0  0  0  0  0  0  0999 V2000
    3.3196   -0.5292    1.0750 O   0  0  0  0  0  0  0  0  0  0  0  0
    2.4770   -0.4094   -0.0361 C   0  0  0  0  0  0  0  0  0  0  0  0
    1.1308    0.0284    0.4753 C   0  0  0  0  0  0  0  0  0  0  0  0
    0.1122    0.2001   -0.6186 C   0  0  0  0  0  0  0  0  0  0  0  0
    0.4769    1.1436   -1.5577 O   0  0  0  0  0  0  0  0  0  0  0  0
   -1.1748    0.6660    0.0746 C   0  0  0  0  0  0  0  0  0  0  0  0
   -1.8561   -0.4110    0.8700 C   0  0  0  0  0  0  0  0  0  0  0  0
   -2.8255   -0.3115   -0.2805 C   0  0  0  0  0  0  0  0  0  0  0  0
   -2.2456    0.8384   -0.7700 O   0  0  0  0  0  0  0  0  0  0  0  0
    4.0792    0.1091    1.0385 H   0  0  0  0  0  0  0  0  0  0  0  0
    2.4317   -1.4360   -0.4861 H   0  0  0  0  0  0  0  0  0  0  0  0
    2.9068    0.2809   -0.7877 H   0  0  0  0  0  0  0  0  0  0  0  0
    1.2613    0.9970    0.9866 H   0  0  0  0  0  0  0  0  0  0  0  0
    0.7629   -0.7688    1.1514 H   0  0  0  0  0  0  0  0  0  0  0  0
   -0.1151   -0.7566   -1.1287 H   0  0  0  0  0  0  0  0  0  0  0  0
    0.3370    0.8369   -2.4937 H   0  0  0  0  0  0  0  0  0  0  0  0
   -1.0250    1.5679    0.7044 H   0  0  0  0  0  0  0  0  0  0  0  0
   -1.2543   -1.3335    0.8745 H   0  0  0  0  0  0  0  0  0  0  0  0
   -2.2550   -0.0990    1.8546 H   0  0  0  0  0  0  0  0  0  0  0  0
   -2.6683   -1.1516   -0.9909 H   0  0  0  0  0  0  0  0  0  0  0  0
   -3.8758   -0.1753    0.0451 H   0  0  0  0  0  0  0  0  0  0  0  0
  1  2  1  0
  2  3  1  0
  3  4  1  0
  4  5  1  0
  4  6  1  0
  6  7  1  0
  7  8  1  0
  8  9  1  0
  9  6  1  0
  1 10  1  0
  2 11  1  0
  2 12  1  0
  3 13  1  0
  3 14  1  0
  4 15  1  0
  5 16  1  0
  6 17  1  0
  7 18  1  0
  7 19  1  0
  8 20  1  0
  8 21  1  0
M  END
