
     RDKit          3D

 19 20  0  0  0  0  0  0  0  0999 V2000
    1.9471   -0.9506   -0.9097 O   0  0  0  0  0  0  0  0  0  0  0  0
    2.0451   -0.2837    0.2907 C   0  0  0  0  0  0  0  0  0  0  0  0
    0.7208   -0.2520    1.0471 C   0  0  0  0  0  0  0  0  0  0  0  0
   -0.2710    0.3799    0.3215 C   0  0  0  0  0  0  0  0  0  0  0  0
   -1.6914    0.5886    0.7629 C   0  0  0  0  0  0  0  0  0  0  0  0
   -1.5420    1.1552   -0.6173 C   0  0  0  0  0  0  0  0  0  0  0  0
   -0.3051    1.6330   -0.2010 O   0  0  0  0  0  0  0  0  0  0  0  0
   -0.8308   -0.1033   -0.9890 C   0  0  0  0  0  0  0  0  0  0  0  0
   -1.5443   -1.2705   -0.9651 O   0  0  0  0  0  0  0  0  0  0  0  0
    2.2082   -0.3908   -1.6746 H   0  0  0  0  0  0  0  0  0  0  0  0
    2.4391    0.7236    0.0944 H   0  0  0  0  0  0  0  0  0  0  0  0
    2.8298   -0.8168    0.8950 H   0  0  0  0  0  0  0  0  0  0  0  0
    0.9079    0.1693    2.0336 H   0  0  0  0  0  0  0  0  0  0  0  0
    0.4758   -1.3419    1.2232 H   0  0  0  0  0  0  0  0  0  0  0  0
   -2.2780   -0.3278    0.8695 H   0  0  0  0  0  0  0  0  0  0  0  0
   -1.8191    1.3750    1.5096 H   0  0  0  0  0  0  0  0  0  0  0  0
   -2.2356    1.6556   -1.1488 H   0  0  0  0  0  0  0  0  0  0  0  0
   -0.1471    0.0634   -1.8357 H   0  0  0  0  0  0  0  0  0  0  0  0
   -0.9093   -2.0061   -0.7063 H   0  0  0  0  0  0  0  0  0  0  0  0
  1  2  1  0
  2  3  1  0
  3  4  1  0
  4  5  1  0
  5  6  1  0
  6  7  1  0
  6  8  1  0
  8  9  1  0
  7  4  1  0
  8  4  1  0
  1 10  1  0
  2 11  1  0
  2 12  1  0
  3 13  1  0
  3 14  1  0
  5 15  1  0
  5 16  1  0
  6 17  1  0
  8 18  1  0
  9 19  1  0
M  END
