
     RDKit          3D

 23 23  0  0  0  0  0  0  0  0999 V2000
    2.7875   -0.7313    0.7092 O   0  0  0  0  0  0  0  0  0  0  0  0
    2.1679   -1.1220   -0.4725 C   0  0  0  0  0  0  0  0  0  0  0  0
    1.2452   -0.0764   -1.0129 C   0  0  0  0  0  0  0  0  0  0  0  0
    0.1357    0.2641   -0.0435 C   0  0  0  0  0  0  0  0  0  0  0  0
    0.6720    0.7441    1.1422 O   0  0  0  0  0  0  0  0  0  0  0  0
   -0.7241   -0.9427    0.2637 C   0  0  0  0  0  0  0  0  0  0  0  0
   -2.0488   -0.2615    0.6333 C   0  0  0  0  0  0  0  0  0  0  0  0
   -2.1921    0.6717   -0.5478 C   0  0  0  0  0  0  0  0  0  0  0  0
   -0.8065    1.2942   -0.5835 C   0  0  0  0  0  0  0  0  0  0  0  0
    3.2415    0.1564    0.6140 H   0  0  0  0  0  0  0  0  0  0  0  0
    2.9269   -1.3351   -1.2590 H   0  0  0  0  0  0  0  0  0  0  0  0
    1.6389   -2.0661   -0.2798 H   0  0  0  0  0  0  0  0  0  0  0  0
    1.8238    0.7947   -1.3179 H   0  0  0  0  0  0  0  0  0  0  0  0
    0.7511   -0.5058   -1.9164 H   0  0  0  0  0  0  0  0  0  0  0  0
    1.2147    1.5474    0.9118 H   0  0  0  0  0  0  0  0  0  0  0  0
   -0.3784   -1.4944    1.1487 H   0  0  0  0  0  0  0  0  0  0  0  0
   -0.8990   -1.5827   -0.6242 H   0  0  0  0  0  0  0  0  0  0  0  0
   -1.8951    0.3521    1.5224 H   0  0  0  0  0  0  0  0  0  0  0  0
   -2.8735   -0.9898    0.7066 H   0  0  0  0  0  0  0  0  0  0  0  0
   -2.9836    1.4257   -0.3973 H   0  0  0  0  0  0  0  0  0  0  0  0
   -2.3658    0.0321   -1.4396 H   0  0  0  0  0  0  0  0  0  0  0  0
   -0.8512    2.2182    0.0530 H   0  0  0  0  0  0  0  0  0  0  0  0
   -0.5871    1.6072   -1.6209 H   0  0  0  0  0  0  0  0  0  0  0  0
  1  2  1  0
  2  3  1  0
  3  4  1  0
  4  5  1  0
  4  6  1  0
  6  7  1  0
  7  8  1  0
  8  9  1  0
  9  4  1  0
  1 10  1  0
  2 11  1  0
  2 12  1  0
  3 13  1  0
  3 14  1  0
  5 15  1  0
  6 16  1  0
  6 17  1  0
  7 18  1  0
  7 19  1  0
  8 20  1  0
  8 21  1  0
  9 22  1  0
  9 23  1  0
M  END
