
     RDKit          3D

 23 23  0  0  0  0  0  0  0  0999 V2000
    4.0987    0.3011    0.0812 O   0  0  0  0  0  0  0  0  0  0  0  0
    2.9416   -0.0352   -0.5892 C   0  0  0  0  0  0  0  0  0  0  0  0
    1.7314   -0.0775    0.3504 C   0  0  0  0  0  0  0  0  0  0  0  0
    0.5496   -0.4525   -0.5013 C   0  0  0  0  0  0  0  0  0  0  0  0
   -0.7323   -0.5378    0.2798 C   0  0  0  0  0  0  0  0  0  0  0  0
   -1.1030    0.7336    0.9358 C   0  0  0  0  0  0  0  0  0  0  0  0
   -2.3174    1.1204    0.5794 C   0  0  0  0  0  0  0  0  0  0  0  0
   -2.9307    0.1523   -0.3721 C   0  0  0  0  0  0  0  0  0  0  0  0
   -1.8777   -0.8675   -0.6519 C   0  0  0  0  0  0  0  0  0  0  0  0
    4.1697    1.2480    0.2762 H   0  0  0  0  0  0  0  0  0  0  0  0
    2.7069    0.7633   -1.3281 H   0  0  0  0  0  0  0  0  0  0  0  0
    3.0253   -0.9759   -1.1428 H   0  0  0  0  0  0  0  0  0  0  0  0
    1.8936   -0.7860    1.1767 H   0  0  0  0  0  0  0  0  0  0  0  0
    1.6215    0.9251    0.8115 H   0  0  0  0  0  0  0  0  0  0  0  0
    0.7367   -1.4513   -0.9376 H   0  0  0  0  0  0  0  0  0  0  0  0
    0.4115    0.2894   -1.3022 H   0  0  0  0  0  0  0  0  0  0  0  0
   -0.6844   -1.3241    1.0626 H   0  0  0  0  0  0  0  0  0  0  0  0
   -0.4816    1.2955    1.6219 H   0  0  0  0  0  0  0  0  0  0  0  0
   -2.8564    2.0174    0.9021 H   0  0  0  0  0  0  0  0  0  0  0  0
   -3.8731   -0.2777    0.0193 H   0  0  0  0  0  0  0  0  0  0  0  0
   -3.2138    0.6567   -1.3343 H   0  0  0  0  0  0  0  0  0  0  0  0
   -2.2621   -1.8974   -0.5072 H   0  0  0  0  0  0  0  0  0  0  0  0
   -1.5541   -0.8200   -1.7261 H   0  0  0  0  0  0  0  0  0  0  0  0
  1  2  1  0
  2  3  1  0
  3  4  1  0
  4  5  1  0
  5  6  1  0
  6  7  2  0
  7  8  1  0
  8  9  1  0
  9  5  1  0
  1 10  1  0
  2 11  1  0
  2 12  1  0
  3 13  1  0
  3 14  1  0
  4 15  1  0
  4 16  1  0
  5 17  1  0
  6 18  1  0
  7 19  1  0
  8 20  1  0
  8 21  1  0
  9 22  1  0
  9 23  1  0
M  END
