
     RDKit          3D

 23 24  0  0  0  0  0  0  0  0999 V2000
    2.5756    1.0516   -0.1624 O   0  0  0  0  0  0  0  0  0  0  0  0
    2.5157   -0.2391    0.3075 C   0  0  0  0  0  0  0  0  0  0  0  0
    1.1634   -0.6343    0.7868 C   0  0  0  0  0  0  0  0  0  0  0  0
    0.0950   -0.5706   -0.2218 C   0  0  0  0  0  0  0  0  0  0  0  0
   -0.1241    0.8249   -0.8135 C   0  0  0  0  0  0  0  0  0  0  0  0
   -1.6243    0.9137   -0.5889 C   0  0  0  0  0  0  0  0  0  0  0  0
   -2.1228   -0.4800   -0.8839 C   0  0  0  0  0  0  0  0  0  0  0  0
   -1.2641   -0.8455    0.3249 C   0  0  0  0  0  0  0  0  0  0  0  0
   -1.6726    0.5005    0.8832 C   0  0  0  0  0  0  0  0  0  0  0  0
    3.5188    1.3358   -0.1839 H   0  0  0  0  0  0  0  0  0  0  0  0
    2.8017   -0.9439   -0.5144 H   0  0  0  0  0  0  0  0  0  0  0  0
    3.2299   -0.3580    1.1552 H   0  0  0  0  0  0  0  0  0  0  0  0
    0.9529   -0.0772    1.7204 H   0  0  0  0  0  0  0  0  0  0  0  0
    1.2359   -1.7128    1.1115 H   0  0  0  0  0  0  0  0  0  0  0  0
    0.2913   -1.2517   -1.0484 H   0  0  0  0  0  0  0  0  0  0  0  0
    0.1394    0.8849   -1.8665 H   0  0  0  0  0  0  0  0  0  0  0  0
    0.3180    1.6182   -0.1912 H   0  0  0  0  0  0  0  0  0  0  0  0
   -2.1608    1.7608   -0.9013 H   0  0  0  0  0  0  0  0  0  0  0  0
   -1.6804   -0.9604   -1.7791 H   0  0  0  0  0  0  0  0  0  0  0  0
   -3.1968   -0.5944   -0.7515 H   0  0  0  0  0  0  0  0  0  0  0  0
   -1.4875   -1.7278    0.8590 H   0  0  0  0  0  0  0  0  0  0  0  0
   -0.8515    0.9537    1.4738 H   0  0  0  0  0  0  0  0  0  0  0  0
   -2.6530    0.5519    1.3472 H   0  0  0  0  0  0  0  0  0  0  0  0
  1  2  1  0
  2  3  1  0
  3  4  1  0
  4  5  1  0
  5  6  1  0
  6  7  1  0
  7  8  1  0
  8  9  1  0
  8  4  1  0
  9  6  1  0
  1 10  1  0
  2 11  1  0
  2 12  1  0
  3 13  1  0
  3 14  1  0
  4 15  1  0
  5 16  1  0
  5 17  1  0
  6 18  1  0
  7 19  1  0
  7 20  1  0
  8 21  1  0
  9 22  1  0
  9 23  1  0
M  END
