
     RDKit          3D

 21 22  0  0  0  0  0  0  0  0999 V2000
    3.1490   -0.7341    0.0766 O   0  0  0  0  0  0  0  0  0  0  0  0
    2.4712    0.3553    0.5894 C   0  0  0  0  0  0  0  0  0  0  0  0
    1.2976    0.7702   -0.2218 C   0  0  0  0  0  0  0  0  0  0  0  0
    0.2418   -0.2726   -0.3816 C   0  0  0  0  0  0  0  0  0  0  0  0
   -0.2975   -0.6850    0.8632 O   0  0  0  0  0  0  0  0  0  0  0  0
   -1.6430   -0.5816    0.6487 C   0  0  0  0  0  0  0  0  0  0  0  0
   -1.8970   -1.0127   -0.8055 C   0  0  0  0  0  0  0  0  0  0  0  0
   -0.9872    0.2002   -1.0652 C   0  0  0  0  0  0  0  0  0  0  0  0
   -1.7536    0.8411    0.0744 C   0  0  0  0  0  0  0  0  0  0  0  0
    2.5907   -1.3777   -0.4037 H   0  0  0  0  0  0  0  0  0  0  0  0
    2.2211    0.1724    1.6631 H   0  0  0  0  0  0  0  0  0  0  0  0
    3.1922    1.2055    0.6019 H   0  0  0  0  0  0  0  0  0  0  0  0
    0.8312    1.6507    0.2719 H   0  0  0  0  0  0  0  0  0  0  0  0
    1.6554    1.0471   -1.2331 H   0  0  0  0  0  0  0  0  0  0  0  0
    0.6213   -1.1751   -0.8948 H   0  0  0  0  0  0  0  0  0  0  0  0
   -2.3572   -0.8697    1.3746 H   0  0  0  0  0  0  0  0  0  0  0  0
   -2.9280   -0.8438   -1.1018 H   0  0  0  0  0  0  0  0  0  0  0  0
   -1.4296   -1.9669   -1.0336 H   0  0  0  0  0  0  0  0  0  0  0  0
   -0.9910    0.6328   -2.0186 H   0  0  0  0  0  0  0  0  0  0  0  0
   -1.1875    1.5596    0.6603 H   0  0  0  0  0  0  0  0  0  0  0  0
   -2.7998    1.0843   -0.1368 H   0  0  0  0  0  0  0  0  0  0  0  0
  1  2  1  0
  2  3  1  0
  3  4  1  0
  4  5  1  0
  5  6  1  0
  6  7  1  0
  7  8  1  0
  8  9  1  0
  8  4  1  0
  9  6  1  0
  1 10  1  0
  2 11  1  0
  2 12  1  0
  3 13  1  0
  3 14  1  0
  4 15  1  0
  6 16  1  0
  7 17  1  0
  7 18  1  0
  8 19  1  0
  9 20  1  0
  9 21  1  0
M  END
