
     RDKit          3D

 23 23  0  0  0  0  0  0  0  0999 V2000
   -1.6930    1.5516    0.9239 O   0  0  0  0  0  0  0  0  0  0  0  0
   -2.3197    0.5808    0.1850 C   0  0  0  0  0  0  0  0  0  0  0  0
   -1.7148   -0.7676    0.1837 C   0  0  0  0  0  0  0  0  0  0  0  0
   -0.3489   -0.9426   -0.3435 C   0  0  0  0  0  0  0  0  0  0  0  0
   -0.0484   -2.3381   -0.2362 O   0  0  0  0  0  0  0  0  0  0  0  0
    0.7457   -0.2828    0.4565 C   0  0  0  0  0  0  0  0  0  0  0  0
    2.1167   -0.5678   -0.1904 C   0  0  0  0  0  0  0  0  0  0  0  0
    2.4631    0.8632   -0.0073 C   0  0  0  0  0  0  0  0  0  0  0  0
    1.0025    1.1720    0.2282 C   0  0  0  0  0  0  0  0  0  0  0  0
   -2.2126    2.3871    0.8129 H   0  0  0  0  0  0  0  0  0  0  0  0
   -2.5069    0.9897   -0.8340 H   0  0  0  0  0  0  0  0  0  0  0  0
   -3.3599    0.4888    0.6244 H   0  0  0  0  0  0  0  0  0  0  0  0
   -1.7418   -1.2340    1.2100 H   0  0  0  0  0  0  0  0  0  0  0  0
   -2.4039   -1.4417   -0.4180 H   0  0  0  0  0  0  0  0  0  0  0  0
   -0.2464   -0.7355   -1.4280 H   0  0  0  0  0  0  0  0  0  0  0  0
   -0.6254   -2.8039   -0.8991 H   0  0  0  0  0  0  0  0  0  0  0  0
    0.7826   -0.5549    1.5180 H   0  0  0  0  0  0  0  0  0  0  0  0
    2.7133   -1.3171    0.3689 H   0  0  0  0  0  0  0  0  0  0  0  0
    2.0170   -0.8473   -1.2695 H   0  0  0  0  0  0  0  0  0  0  0  0
    3.0918    1.0050    0.9010 H   0  0  0  0  0  0  0  0  0  0  0  0
    2.8610    1.3999   -0.8930 H   0  0  0  0  0  0  0  0  0  0  0  0
    0.9062    1.8092    1.1443 H   0  0  0  0  0  0  0  0  0  0  0  0
    0.5217    1.5859   -0.6855 H   0  0  0  0  0  0  0  0  0  0  0  0
  1  2  1  0
  2  3  1  0
  3  4  1  0
  4  5  1  0
  4  6  1  0
  6  7  1  0
  7  8  1  0
  8  9  1  0
  9  6  1  0
  1 10  1  0
  2 11  1  0
  2 12  1  0
  3 13  1  0
  3 14  1  0
  4 15  1  0
  5 16  1  0
  6 17  1  0
  7 18  1  0
  7 19  1  0
  8 20  1  0
  8 21  1  0
  9 22  1  0
  9 23  1  0
M  END
