
     RDKit          3D

 21 22  0  0  0  0  0  0  0  0999 V2000
    3.1753    0.4824    0.8592 O   0  0  0  0  0  0  0  0  0  0  0  0
    2.1444    0.5978   -0.0790 C   0  0  0  0  0  0  0  0  0  0  0  0
    1.1752   -0.5152    0.2176 C   0  0  0  0  0  0  0  0  0  0  0  0
   -0.0148   -0.5461   -0.7165 C   0  0  0  0  0  0  0  0  0  0  0  0
   -0.8806   -1.5968   -0.4047 O   0  0  0  0  0  0  0  0  0  0  0  0
   -1.4079   -1.2241    0.8210 C   0  0  0  0  0  0  0  0  0  0  0  0
   -1.6439    0.2791    0.7385 C   0  0  0  0  0  0  0  0  0  0  0  0
   -2.2733    0.7375   -0.5128 C   0  0  0  0  0  0  0  0  0  0  0  0
   -0.7965    0.7091   -0.4786 C   0  0  0  0  0  0  0  0  0  0  0  0
    4.0262    0.4009    0.3573 H   0  0  0  0  0  0  0  0  0  0  0  0
    2.5252    0.5687   -1.1194 H   0  0  0  0  0  0  0  0  0  0  0  0
    1.6965    1.5992    0.0605 H   0  0  0  0  0  0  0  0  0  0  0  0
    0.8470   -0.3601    1.2847 H   0  0  0  0  0  0  0  0  0  0  0  0
    1.6311   -1.5060    0.1920 H   0  0  0  0  0  0  0  0  0  0  0  0
    0.3381   -0.6876   -1.7383 H   0  0  0  0  0  0  0  0  0  0  0  0
   -2.4112   -1.7093    0.9297 H   0  0  0  0  0  0  0  0  0  0  0  0
   -0.7848   -1.5180    1.6699 H   0  0  0  0  0  0  0  0  0  0  0  0
   -1.5054    0.8940    1.6234 H   0  0  0  0  0  0  0  0  0  0  0  0
   -2.7237    1.7584   -0.5954 H   0  0  0  0  0  0  0  0  0  0  0  0
   -2.8671   -0.0106   -1.0764 H   0  0  0  0  0  0  0  0  0  0  0  0
   -0.2496    1.6464   -0.4549 H   0  0  0  0  0  0  0  0  0  0  0  0
  1  2  1  0
  2  3  1  0
  3  4  1  0
  4  5  1  0
  5  6  1  0
  6  7  1  0
  7  8  1  0
  8  9  1  0
  9  4  1  0
  9  7  1  0
  1 10  1  0
  2 11  1  0
  2 12  1  0
  3 13  1  0
  3 14  1  0
  4 15  1  0
  6 16  1  0
  6 17  1  0
  7 18  1  0
  8 19  1  0
  8 20  1  0
  9 21  1  0
M  END
