
     RDKit          3D

 21 21  0  0  0  0  0  0  0  0999 V2000
    2.2673    1.1841    0.0900 O   0  0  0  0  0  0  0  0  0  0  0  0
    2.0250    0.0152   -0.6292 C   0  0  0  0  0  0  0  0  0  0  0  0
    1.7834   -1.0768    0.4078 C   0  0  0  0  0  0  0  0  0  0  0  0
    0.6093   -0.7379    1.2702 C   0  0  0  0  0  0  0  0  0  0  0  0
   -0.6693   -0.5843    0.4741 C   0  0  0  0  0  0  0  0  0  0  0  0
   -1.7611   -0.2524    1.4114 O   0  0  0  0  0  0  0  0  0  0  0  0
   -1.2599    0.7163    0.3999 C   0  0  0  0  0  0  0  0  0  0  0  0
   -2.4062    1.0866   -0.4962 C   0  0  0  0  0  0  0  0  0  0  0  0
   -2.9447   -0.0085   -1.1606 O   0  0  0  0  0  0  0  0  0  0  0  0
    3.1769    1.1964    0.4695 H   0  0  0  0  0  0  0  0  0  0  0  0
    1.1897    0.1295   -1.3235 H   0  0  0  0  0  0  0  0  0  0  0  0
    2.9026   -0.3150   -1.2214 H   0  0  0  0  0  0  0  0  0  0  0  0
    2.6898   -1.0890    1.0476 H   0  0  0  0  0  0  0  0  0  0  0  0
    1.7149   -2.0725   -0.0695 H   0  0  0  0  0  0  0  0  0  0  0  0
    0.8341    0.2075    1.7943 H   0  0  0  0  0  0  0  0  0  0  0  0
    0.5178   -1.5163    2.0564 H   0  0  0  0  0  0  0  0  0  0  0  0
   -0.9365   -1.3558   -0.2599 H   0  0  0  0  0  0  0  0  0  0  0  0
   -0.7653    1.5919    0.8691 H   0  0  0  0  0  0  0  0  0  0  0  0
   -2.1808    1.9157   -1.1695 H   0  0  0  0  0  0  0  0  0  0  0  0
   -3.2280    1.4587    0.1842 H   0  0  0  0  0  0  0  0  0  0  0  0
   -3.5590   -0.4932   -0.5280 H   0  0  0  0  0  0  0  0  0  0  0  0
  1  2  1  0
  2  3  1  0
  3  4  1  0
  4  5  1  0
  5  6  1  0
  6  7  1  0
  7  8  1  0
  8  9  1  0
  7  5  1  0
  1 10  1  0
  2 11  1  0
  2 12  1  0
  3 13  1  0
  3 14  1  0
  4 15  1  0
  4 16  1  0
  5 17  1  0
  7 18  1  0
  8 19  1  0
  8 20  1  0
  9 21  1  0
M  END
