
     RDKit          3D

 21 22  0  0  0  0  0  0  0  0999 V2000
    3.4290    0.2368    0.0308 O   0  0  0  0  0  0  0  0  0  0  0  0
    2.1319   -0.2976    0.0411 C   0  0  0  0  0  0  0  0  0  0  0  0
    1.2013    0.7712   -0.4119 C   0  0  0  0  0  0  0  0  0  0  0  0
   -0.2044    0.4540   -0.4839 C   0  0  0  0  0  0  0  0  0  0  0  0
   -0.9102    0.0223    0.8006 C   0  0  0  0  0  0  0  0  0  0  0  0
   -1.8863   -0.5993   -0.2101 C   0  0  0  0  0  0  0  0  0  0  0  0
   -2.3440    0.6310   -0.9121 C   0  0  0  0  0  0  0  0  0  0  0  0
   -1.0890    1.2557   -1.1501 O   0  0  0  0  0  0  0  0  0  0  0  0
   -0.6149   -0.9335   -1.0058 C   0  0  0  0  0  0  0  0  0  0  0  0
    4.1034   -0.4531   -0.2094 H   0  0  0  0  0  0  0  0  0  0  0  0
    1.9339   -0.6344    1.0705 H   0  0  0  0  0  0  0  0  0  0  0  0
    2.1139   -1.1147   -0.7042 H   0  0  0  0  0  0  0  0  0  0  0  0
    1.3360    1.6351    0.3058 H   0  0  0  0  0  0  0  0  0  0  0  0
    1.5736    1.1609   -1.3810 H   0  0  0  0  0  0  0  0  0  0  0  0
   -1.3287    0.8757    1.3567 H   0  0  0  0  0  0  0  0  0  0  0  0
   -0.3304   -0.7165    1.3540 H   0  0  0  0  0  0  0  0  0  0  0  0
   -2.5184   -1.3710    0.0954 H   0  0  0  0  0  0  0  0  0  0  0  0
   -2.8874    1.3402   -0.2393 H   0  0  0  0  0  0  0  0  0  0  0  0
   -2.8730    0.4444   -1.8505 H   0  0  0  0  0  0  0  0  0  0  0  0
   -0.8228   -0.9682   -2.0808 H   0  0  0  0  0  0  0  0  0  0  0  0
   -0.0135   -1.7390   -0.5726 H   0  0  0  0  0  0  0  0  0  0  0  0
  1  2  1  0
  2  3  1  0
  3  4  1  0
  4  5  1  0
  5  6  1  0
  6  7  1  0
  7  8  1  0
  6  9  1  0
  8  4  1  0
  9  4  1  0
  1 10  1  0
  2 11  1  0
  2 12  1  0
  3 13  1  0
  3 14  1  0
  5 15  1  0
  5 16  1  0
  6 17  1  0
  7 18  1  0
  7 19  1  0
  9 20  1  0
  9 21  1  0
M  END
