
     RDKit          3D

 21 22  0  0  0  0  0  0  0  0999 V2000
    2.1790    1.1651    0.6951 O   0  0  0  0  0  0  0  0  0  0  0  0
    2.1573   -0.2079    0.4874 C   0  0  0  0  0  0  0  0  0  0  0  0
    1.2397   -0.6646   -0.5875 C   0  0  0  0  0  0  0  0  0  0  0  0
   -0.1956   -0.3651   -0.4332 C   0  0  0  0  0  0  0  0  0  0  0  0
   -0.6658    1.0413   -0.3338 C   0  0  0  0  0  0  0  0  0  0  0  0
   -1.7836    0.6284    0.6088 C   0  0  0  0  0  0  0  0  0  0  0  0
   -1.8949    1.3518    1.7642 O   0  0  0  0  0  0  0  0  0  0  0  0
   -1.0121   -0.6912    0.7348 C   0  0  0  0  0  0  0  0  0  0  0  0
   -1.1183   -1.5216   -0.4751 C   0  0  0  0  0  0  0  0  0  0  0  0
    2.7924    1.6389    0.0805 H   0  0  0  0  0  0  0  0  0  0  0  0
    1.8699   -0.6530    1.4823 H   0  0  0  0  0  0  0  0  0  0  0  0
    3.2156   -0.4917    0.2479 H   0  0  0  0  0  0  0  0  0  0  0  0
    1.4066   -1.7567   -0.8007 H   0  0  0  0  0  0  0  0  0  0  0  0
    1.5784   -0.1551   -1.5394 H   0  0  0  0  0  0  0  0  0  0  0  0
    0.0283    1.7598    0.1353 H   0  0  0  0  0  0  0  0  0  0  0  0
   -1.0205    1.4726   -1.2984 H   0  0  0  0  0  0  0  0  0  0  0  0
   -2.7202    0.5136    0.0045 H   0  0  0  0  0  0  0  0  0  0  0  0
   -2.6825    1.9522    1.6707 H   0  0  0  0  0  0  0  0  0  0  0  0
   -0.6499   -1.0197    1.6955 H   0  0  0  0  0  0  0  0  0  0  0  0
   -2.0424   -1.4782   -1.1070 H   0  0  0  0  0  0  0  0  0  0  0  0
   -0.6816   -2.5188   -0.4216 H   0  0  0  0  0  0  0  0  0  0  0  0
  1  2  1  0
  2  3  1  0
  3  4  1  0
  4  5  1  0
  5  6  1  0
  6  7  1  0
  6  8  1  0
  8  9  1  0
  8  4  1  0
  9  4  1  0
  1 10  1  0
  2 11  1  0
  2 12  1  0
  3 13  1  0
  3 14  1  0
  5 15  1  0
  5 16  1  0
  6 17  1  0
  7 18  1  0
  8 19  1  0
  9 20  1  0
  9 21  1  0
M  END
