
     RDKit          3D

 21 21  0  0  0  0  0  0  0  0999 V2000
    2.6608   -0.1190    0.9677 O   0  0  0  0  0  0  0  0  0  0  0  0
    2.1073   -0.8661   -0.0898 C   0  0  0  0  0  0  0  0  0  0  0  0
    1.1881    0.0537   -0.8641 C   0  0  0  0  0  0  0  0  0  0  0  0
    0.1018    0.5557    0.0630 C   0  0  0  0  0  0  0  0  0  0  0  0
   -0.8521    1.4831   -0.6503 C   0  0  0  0  0  0  0  0  0  0  0  0
   -2.1721    1.1331   -0.0763 C   0  0  0  0  0  0  0  0  0  0  0  0
   -2.1702    0.0023    0.5877 C   0  0  0  0  0  0  0  0  0  0  0  0
   -0.7998   -0.5663    0.5393 C   0  0  0  0  0  0  0  0  0  0  0  0
   -0.7511   -1.6707   -0.3178 O   0  0  0  0  0  0  0  0  0  0  0  0
    2.2531   -0.3955    1.8329 H   0  0  0  0  0  0  0  0  0  0  0  0
    2.9020   -1.2556   -0.7531 H   0  0  0  0  0  0  0  0  0  0  0  0
    1.5008   -1.6973    0.2958 H   0  0  0  0  0  0  0  0  0  0  0  0
    0.7924   -0.4814   -1.7326 H   0  0  0  0  0  0  0  0  0  0  0  0
    1.7954    0.9339   -1.1550 H   0  0  0  0  0  0  0  0  0  0  0  0
    0.5643    1.1103    0.9038 H   0  0  0  0  0  0  0  0  0  0  0  0
   -0.5754    2.5495   -0.4412 H   0  0  0  0  0  0  0  0  0  0  0  0
   -0.8357    1.2574   -1.7256 H   0  0  0  0  0  0  0  0  0  0  0  0
   -3.0455    1.7684   -0.2059 H   0  0  0  0  0  0  0  0  0  0  0  0
   -3.0193   -0.4501    1.0909 H   0  0  0  0  0  0  0  0  0  0  0  0
   -0.5087   -0.9160    1.5477 H   0  0  0  0  0  0  0  0  0  0  0  0
   -1.1360   -2.4295    0.1831 H   0  0  0  0  0  0  0  0  0  0  0  0
  1  2  1  0
  2  3  1  0
  3  4  1  0
  4  5  1  0
  5  6  1  0
  6  7  2  0
  7  8  1  0
  8  9  1  0
  8  4  1  0
  1 10  1  0
  2 11  1  0
  2 12  1  0
  3 13  1  0
  3 14  1  0
  4 15  1  0
  5 16  1  0
  5 17  1  0
  6 18  1  0
  7 19  1  0
  8 20  1  0
  9 21  1  0
M  END
