
     RDKit          3D

 21 22  0  0  0  0  0  0  0  0999 V2000
    1.6791   -1.1312    0.1848 O   0  0  0  0  0  0  0  0  0  0  0  0
    2.1092   -0.1101   -0.6166 C   0  0  0  0  0  0  0  0  0  0  0  0
    1.5898    1.2514   -0.2578 C   0  0  0  0  0  0  0  0  0  0  0  0
    0.1218    1.4388   -0.3203 C   0  0  0  0  0  0  0  0  0  0  0  0
   -0.7148    0.5517    0.5346 C   0  0  0  0  0  0  0  0  0  0  0  0
   -2.0912    0.8442    0.4195 O   0  0  0  0  0  0  0  0  0  0  0  0
   -2.4747   -0.3747   -0.0596 C   0  0  0  0  0  0  0  0  0  0  0  0
   -2.0051   -1.5974    0.6294 C   0  0  0  0  0  0  0  0  0  0  0  0
   -1.0346   -0.7997   -0.1193 C   0  0  0  0  0  0  0  0  0  0  0  0
    2.3619   -1.8471    0.2458 H   0  0  0  0  0  0  0  0  0  0  0  0
    3.2342   -0.0294   -0.5631 H   0  0  0  0  0  0  0  0  0  0  0  0
    1.8150   -0.3246   -1.6670 H   0  0  0  0  0  0  0  0  0  0  0  0
    2.0433    1.6007    0.6989 H   0  0  0  0  0  0  0  0  0  0  0  0
    2.0539    1.9494   -1.0239 H   0  0  0  0  0  0  0  0  0  0  0  0
   -0.2025    1.2790   -1.3916 H   0  0  0  0  0  0  0  0  0  0  0  0
   -0.1122    2.5115   -0.0536 H   0  0  0  0  0  0  0  0  0  0  0  0
   -0.3758    0.3827    1.5641 H   0  0  0  0  0  0  0  0  0  0  0  0
   -3.0423   -0.4489   -1.0170 H   0  0  0  0  0  0  0  0  0  0  0  0
   -2.3609   -2.5902    0.2929 H   0  0  0  0  0  0  0  0  0  0  0  0
   -1.9426   -1.5336    1.7419 H   0  0  0  0  0  0  0  0  0  0  0  0
   -0.6516   -1.0224   -1.1271 H   0  0  0  0  0  0  0  0  0  0  0  0
  1  2  1  0
  2  3  1  0
  3  4  1  0
  4  5  1  0
  5  6  1  0
  6  7  1  0
  7  8  1  0
  8  9  1  0
  9  5  1  0
  9  7  1  0
  1 10  1  0
  2 11  1  0
  2 12  1  0
  3 13  1  0
  3 14  1  0
  4 15  1  0
  4 16  1  0
  5 17  1  0
  7 18  1  0
  8 19  1  0
  8 20  1  0
  9 21  1  0
M  END
