
     RDKit          3D

 23 23  0  0  0  0  0  0  0  0999 V2000
   -1.7327    1.1533    0.1107 O   0  0  0  0  0  0  0  0  0  0  0  0
   -2.5101    0.0287    0.2710 C   0  0  0  0  0  0  0  0  0  0  0  0
   -1.8194   -1.1915   -0.3020 C   0  0  0  0  0  0  0  0  0  0  0  0
   -0.5023   -1.4842    0.3390 C   0  0  0  0  0  0  0  0  0  0  0  0
    0.5000   -0.4006    0.2014 C   0  0  0  0  0  0  0  0  0  0  0  0
    1.0783    0.2640    1.1908 C   0  0  0  0  0  0  0  0  0  0  0  0
    2.0188    1.2660    0.6327 C   0  0  0  0  0  0  0  0  0  0  0  0
    2.3713    0.6599   -0.7045 C   0  0  0  0  0  0  0  0  0  0  0  0
    1.0151    0.0855   -1.1125 C   0  0  0  0  0  0  0  0  0  0  0  0
   -2.2189    1.8079   -0.4427 H   0  0  0  0  0  0  0  0  0  0  0  0
   -2.7415   -0.0839    1.3317 H   0  0  0  0  0  0  0  0  0  0  0  0
   -3.4767    0.1432   -0.2879 H   0  0  0  0  0  0  0  0  0  0  0  0
   -2.4604   -2.0907   -0.1636 H   0  0  0  0  0  0  0  0  0  0  0  0
   -1.6522   -1.0805   -1.3921 H   0  0  0  0  0  0  0  0  0  0  0  0
   -0.0793   -2.3801   -0.1856 H   0  0  0  0  0  0  0  0  0  0  0  0
   -0.6045   -1.8004    1.4092 H   0  0  0  0  0  0  0  0  0  0  0  0
    0.9160    0.1266    2.2674 H   0  0  0  0  0  0  0  0  0  0  0  0
    1.5396    2.2601    0.4838 H   0  0  0  0  0  0  0  0  0  0  0  0
    2.9035    1.4288    1.2761 H   0  0  0  0  0  0  0  0  0  0  0  0
    3.0791   -0.1785   -0.4961 H   0  0  0  0  0  0  0  0  0  0  0  0
    2.7677    1.3687   -1.4277 H   0  0  0  0  0  0  0  0  0  0  0  0
    0.4027    0.8591   -1.5655 H   0  0  0  0  0  0  0  0  0  0  0  0
    1.2058   -0.7613   -1.8178 H   0  0  0  0  0  0  0  0  0  0  0  0
  1  2  1  0
  2  3  1  0
  3  4  1  0
  4  5  1  0
  5  6  2  0
  6  7  1  0
  7  8  1  0
  8  9  1  0
  9  5  1  0
  1 10  1  0
  2 11  1  0
  2 12  1  0
  3 13  1  0
  3 14  1  0
  4 15  1  0
  4 16  1  0
  6 17  1  0
  7 18  1  0
  7 19  1  0
  8 20  1  0
  8 21  1  0
  9 22  1  0
  9 23  1  0
M  END
