
     RDKit          3D

 18 18  0  0  0  0  0  0  0  0999 V2000
    3.7038    1.6490   -0.1071 O   0  0  0  0  0  0  0  0  0  0  0  0
    2.4402    1.1629   -0.4819 C   0  0  0  0  0  0  0  0  0  0  0  0
    1.6873    0.8537    0.8718 C   0  0  0  0  0  0  0  0  0  0  0  0
    0.4303    0.2339    0.5588 C   0  0  0  0  0  0  0  0  0  0  0  0
   -0.7930   -0.3774    0.2292 C   0  0  0  0  0  0  0  0  0  0  0  0
   -1.7879   -0.8582   -0.0513 C   0  0  0  0  0  0  0  0  0  0  0  0
   -2.8161   -0.6856   -1.1373 C   0  0  0  0  0  0  0  0  0  0  0  0
   -1.9821   -1.8963   -1.2246 C   0  0  0  0  0  0  0  0  0  0  0  0
    3.6049    2.5725    0.2723 H   0  0  0  0  0  0  0  0  0  0  0  0
    1.9325    2.0219   -1.0300 H   0  0  0  0  0  0  0  0  0  0  0  0
    2.5529    0.3061   -1.1322 H   0  0  0  0  0  0  0  0  0  0  0  0
    1.4483    1.8645    1.2912 H   0  0  0  0  0  0  0  0  0  0  0  0
    2.3318    0.2765    1.4763 H   0  0  0  0  0  0  0  0  0  0  0  0
   -2.4408   -1.5102    0.8680 H   0  0  0  0  0  0  0  0  0  0  0  0
   -2.8135    0.1528   -1.8161 H   0  0  0  0  0  0  0  0  0  0  0  0
   -3.9197   -0.9017   -0.8081 H   0  0  0  0  0  0  0  0  0  0  0  0
   -2.4705   -2.8645   -0.9493 H   0  0  0  0  0  0  0  0  0  0  0  0
   -1.1085   -1.9997   -1.8598 H   0  0  0  0  0  0  0  0  0  0  0  0
  1  2  1  0
  2  3  1  0
  3  4  1  0
  4  5  3  0
  5  6  1  0
  6  7  1  0
  7  8  1  0
  8  6  1  0
  1  9  1  0
  2 10  1  0
  2 11  1  0
  3 12  1  0
  3 13  1  0
  6 14  1  0
  7 15  1  0
  7 16  1  0
  8 17  1  0
  8 18  1  0
M  END
