
     RDKit          3D

 21 21  0  0  0  0  0  0  0  0999 V2000
    3.3450    1.3481   -0.1848 O   0  0  0  0  0  0  0  0  0  0  0  0
    2.2523    0.6855    0.3220 C   0  0  0  0  0  0  0  0  0  0  0  0
    1.6436   -0.2519   -0.7235 C   0  0  0  0  0  0  0  0  0  0  0  0
    0.4493   -0.9633   -0.1397 C   0  0  0  0  0  0  0  0  0  0  0  0
   -0.6304   -0.0046    0.3053 C   0  0  0  0  0  0  0  0  0  0  0  0
   -1.1526    0.7995   -0.6781 O   0  0  0  0  0  0  0  0  0  0  0  0
   -2.4090    0.6774   -0.0865 C   0  0  0  0  0  0  0  0  0  0  0  0
   -1.9790   -0.6829    0.4250 C   0  0  0  0  0  0  0  0  0  0  0  0
   -2.1867   -1.7345   -0.4485 O   0  0  0  0  0  0  0  0  0  0  0  0
    3.0549    2.2140   -0.5584 H   0  0  0  0  0  0  0  0  0  0  0  0
    2.5454    0.1212    1.2205 H   0  0  0  0  0  0  0  0  0  0  0  0
    1.4985    1.4399    0.6156 H   0  0  0  0  0  0  0  0  0  0  0  0
    1.3884    0.3029   -1.6247 H   0  0  0  0  0  0  0  0  0  0  0  0
    2.4153   -1.0271   -0.9188 H   0  0  0  0  0  0  0  0  0  0  0  0
    0.8000   -1.5152    0.7522 H   0  0  0  0  0  0  0  0  0  0  0  0
    0.0129   -1.6500   -0.8580 H   0  0  0  0  0  0  0  0  0  0  0  0
   -0.3984    0.5816    1.2078 H   0  0  0  0  0  0  0  0  0  0  0  0
   -2.5794    1.4057    0.7232 H   0  0  0  0  0  0  0  0  0  0  0  0
   -3.2500    0.5655   -0.7973 H   0  0  0  0  0  0  0  0  0  0  0  0
   -2.2962   -0.9013    1.4655 H   0  0  0  0  0  0  0  0  0  0  0  0
   -2.5239   -1.4105   -1.3012 H   0  0  0  0  0  0  0  0  0  0  0  0
  1  2  1  0
  2  3  1  0
  3  4  1  0
  4  5  1  0
  5  6  1  0
  6  7  1  0
  7  8  1  0
  8  9  1  0
  8  5  1  0
  1 10  1  0
  2 11  1  0
  2 12  1  0
  3 13  1  0
  3 14  1  0
  4 15  1  0
  4 16  1  0
  5 17  1  0
  7 18  1  0
  7 19  1  0
  8 20  1  0
  9 21  1  0
M  END
