
     RDKit          3D

 23 24  0  0  0  0  0  0  0  0999 V2000
    3.8884    0.5498   -0.7262 O   0  0  0  0  0  0  0  0  0  0  0  0
    2.8620    0.0341    0.0404 C   0  0  0  0  0  0  0  0  0  0  0  0
    1.5136    0.1314   -0.6661 C   0  0  0  0  0  0  0  0  0  0  0  0
    0.4879   -0.4501    0.2462 C   0  0  0  0  0  0  0  0  0  0  0  0
   -0.9054   -0.4233   -0.3206 C   0  0  0  0  0  0  0  0  0  0  0  0
   -2.0171   -0.9834    0.5131 C   0  0  0  0  0  0  0  0  0  0  0  0
   -2.7709    0.3300    0.2882 C   0  0  0  0  0  0  0  0  0  0  0  0
   -1.6319    0.8190   -0.5752 C   0  0  0  0  0  0  0  0  0  0  0  0
   -1.1980   -0.0809   -1.7058 C   0  0  0  0  0  0  0  0  0  0  0  0
    4.0511    1.4870   -0.4699 H   0  0  0  0  0  0  0  0  0  0  0  0
    3.1284   -1.0313    0.2599 H   0  0  0  0  0  0  0  0  0  0  0  0
    2.8026    0.6197    0.9801 H   0  0  0  0  0  0  0  0  0  0  0  0
    1.6026   -0.3757   -1.6347 H   0  0  0  0  0  0  0  0  0  0  0  0
    1.3550    1.2198   -0.8560 H   0  0  0  0  0  0  0  0  0  0  0  0
    0.7853   -1.4682    0.5249 H   0  0  0  0  0  0  0  0  0  0  0  0
    0.4698    0.1706    1.1724 H   0  0  0  0  0  0  0  0  0  0  0  0
   -1.6802   -1.1467    1.5474 H   0  0  0  0  0  0  0  0  0  0  0  0
   -2.5025   -1.8715    0.0928 H   0  0  0  0  0  0  0  0  0  0  0  0
   -2.8347    0.8781    1.2334 H   0  0  0  0  0  0  0  0  0  0  0  0
   -3.7055    0.1145   -0.2364 H   0  0  0  0  0  0  0  0  0  0  0  0
   -1.2229    1.8201   -0.4564 H   0  0  0  0  0  0  0  0  0  0  0  0
   -0.4359    0.2900   -2.3953 H   0  0  0  0  0  0  0  0  0  0  0  0
   -2.0416   -0.6329   -2.2130 H   0  0  0  0  0  0  0  0  0  0  0  0
  1  2  1  0
  2  3  1  0
  3  4  1  0
  4  5  1  0
  5  6  1  0
  6  7  1  0
  7  8  1  0
  8  9  1  0
  8  5  1  0
  9  5  1  0
  1 10  1  0
  2 11  1  0
  2 12  1  0
  3 13  1  0
  3 14  1  0
  4 15  1  0
  4 16  1  0
  6 17  1  0
  6 18  1  0
  7 19  1  0
  7 20  1  0
  8 21  1  0
  9 22  1  0
  9 23  1  0
M  END
