
     RDKit          3D

 19 18  0  0  0  0  0  0  0  0999 V2000
    3.8048   -0.4863   -1.1703 O   0  0  0  0  0  0  0  0  0  0  0  0
    2.4406   -0.3261   -0.9360 C   0  0  0  0  0  0  0  0  0  0  0  0
    2.1395   -0.1779    0.5355 C   0  0  0  0  0  0  0  0  0  0  0  0
    0.6890   -0.0167    0.6688 C   0  0  0  0  0  0  0  0  0  0  0  0
   -0.5167    0.1231    0.7992 C   0  0  0  0  0  0  0  0  0  0  0  0
   -1.9663    0.2672    0.9537 C   0  0  0  0  0  0  0  0  0  0  0  0
   -2.4400   -0.4856    2.0382 O   0  0  0  0  0  0  0  0  0  0  0  0
   -2.5917   -0.2714   -0.3297 C   0  0  0  0  0  0  0  0  0  0  0  0
   -2.1106    0.4834   -1.3757 O   0  0  0  0  0  0  0  0  0  0  0  0
    4.2630    0.3943   -1.2419 H   0  0  0  0  0  0  0  0  0  0  0  0
    1.8827   -1.2188   -1.2908 H   0  0  0  0  0  0  0  0  0  0  0  0
    2.1357    0.5983   -1.4764 H   0  0  0  0  0  0  0  0  0  0  0  0
    2.6923    0.7103    0.8925 H   0  0  0  0  0  0  0  0  0  0  0  0
    2.5021   -1.0999    1.0364 H   0  0  0  0  0  0  0  0  0  0  0  0
   -2.2651    1.3230    1.1132 H   0  0  0  0  0  0  0  0  0  0  0  0
   -1.6775   -0.9616    2.4266 H   0  0  0  0  0  0  0  0  0  0  0  0
   -2.4526   -1.3483   -0.4239 H   0  0  0  0  0  0  0  0  0  0  0  0
   -3.6967   -0.0927   -0.2790 H   0  0  0  0  0  0  0  0  0  0  0  0
   -2.8326    0.8750   -1.9405 H   0  0  0  0  0  0  0  0  0  0  0  0
  1  2  1  0
  2  3  1  0
  3  4  1  0
  4  5  3  0
  5  6  1  0
  6  7  1  0
  6  8  1  0
  8  9  1  0
  1 10  1  0
  2 11  1  0
  2 12  1  0
  3 13  1  0
  3 14  1  0
  6 15  1  0
  7 16  1  0
  8 17  1  0
  8 18  1  0
  9 19  1  0
M  END
