
     RDKit          3D

 23 23  0  0  0  0  0  0  0  0999 V2000
   -3.8998   -0.3380   -0.4094 O   0  0  0  0  0  0  0  0  0  0  0  0
   -2.5422   -0.3036   -0.6732 C   0  0  0  0  0  0  0  0  0  0  0  0
   -1.7309    0.1063    0.5450 C   0  0  0  0  0  0  0  0  0  0  0  0
   -0.3035    0.1038    0.1302 C   0  0  0  0  0  0  0  0  0  0  0  0
    0.3811    1.2105    0.2104 C   0  0  0  0  0  0  0  0  0  0  0  0
    1.8144    1.3466   -0.1712 C   0  0  0  0  0  0  0  0  0  0  0  0
    2.4840    0.0538   -0.4640 C   0  0  0  0  0  0  0  0  0  0  0  0
    1.7745   -1.1061    0.2111 C   0  0  0  0  0  0  0  0  0  0  0  0
    0.3601   -1.1249   -0.3718 C   0  0  0  0  0  0  0  0  0  0  0  0
   -4.2120    0.6217   -0.4613 H   0  0  0  0  0  0  0  0  0  0  0  0
   -2.3646    0.4483   -1.4756 H   0  0  0  0  0  0  0  0  0  0  0  0
   -2.1747   -1.2650   -1.0328 H   0  0  0  0  0  0  0  0  0  0  0  0
   -1.8896   -0.6772    1.3104 H   0  0  0  0  0  0  0  0  0  0  0  0
   -2.0360    1.0825    0.9501 H   0  0  0  0  0  0  0  0  0  0  0  0
   -0.1067    2.1082    0.5781 H   0  0  0  0  0  0  0  0  0  0  0  0
    2.3070    1.8714    0.6943 H   0  0  0  0  0  0  0  0  0  0  0  0
    1.8419    2.0241   -1.0542 H   0  0  0  0  0  0  0  0  0  0  0  0
    2.6091   -0.1289   -1.5682 H   0  0  0  0  0  0  0  0  0  0  0  0
    3.5229    0.0719   -0.0222 H   0  0  0  0  0  0  0  0  0  0  0  0
    1.6714   -0.8571    1.2685 H   0  0  0  0  0  0  0  0  0  0  0  0
    2.2630   -2.0573    0.0254 H   0  0  0  0  0  0  0  0  0  0  0  0
    0.4101   -1.1430   -1.4917 H   0  0  0  0  0  0  0  0  0  0  0  0
   -0.1794   -2.0481   -0.0103 H   0  0  0  0  0  0  0  0  0  0  0  0
  1  2  1  0
  2  3  1  0
  3  4  1  0
  4  5  2  0
  5  6  1  0
  6  7  1  0
  7  8  1  0
  8  9  1  0
  9  4  1  0
  1 10  1  0
  2 11  1  0
  2 12  1  0
  3 13  1  0
  3 14  1  0
  5 15  1  0
  6 16  1  0
  6 17  1  0
  7 18  1  0
  7 19  1  0
  8 20  1  0
  8 21  1  0
  9 22  1  0
  9 23  1  0
M  END
