
     RDKit          3D

 18 18  0  0  0  0  0  0  0  0999 V2000
    3.2906    0.2282    0.2867 O   0  0  0  0  0  0  0  0  0  0  0  0
    1.9333    0.4479    0.3678 C   0  0  0  0  0  0  0  0  0  0  0  0
    1.1120   -0.6278   -0.2683 C   0  0  0  0  0  0  0  0  0  0  0  0
   -0.3285   -0.2825   -0.1187 C   0  0  0  0  0  0  0  0  0  0  0  0
   -0.8266    0.7818    0.4688 C   0  0  0  0  0  0  0  0  0  0  0  0
   -2.3072    0.6639    0.3534 C   0  0  0  0  0  0  0  0  0  0  0  0
   -2.4784   -0.2193   -0.7121 O   0  0  0  0  0  0  0  0  0  0  0  0
   -1.4277   -1.1222   -0.6192 C   0  0  0  0  0  0  0  0  0  0  0  0
    3.6226    0.2892   -0.6237 H   0  0  0  0  0  0  0  0  0  0  0  0
    1.7278    1.3937   -0.2047 H   0  0  0  0  0  0  0  0  0  0  0  0
    1.6287    0.6348    1.4230 H   0  0  0  0  0  0  0  0  0  0  0  0
    1.3154   -0.6087   -1.3723 H   0  0  0  0  0  0  0  0  0  0  0  0
    1.2942   -1.6292    0.1690 H   0  0  0  0  0  0  0  0  0  0  0  0
   -0.2765    1.6093    0.9564 H   0  0  0  0  0  0  0  0  0  0  0  0
   -2.6893    1.6466    0.0335 H   0  0  0  0  0  0  0  0  0  0  0  0
   -2.7641    0.2950    1.2942 H   0  0  0  0  0  0  0  0  0  0  0  0
   -1.1994   -1.6084   -1.5900 H   0  0  0  0  0  0  0  0  0  0  0  0
   -1.6265   -1.8922    0.1562 H   0  0  0  0  0  0  0  0  0  0  0  0
  1  2  1  0
  2  3  1  0
  3  4  1  0
  4  5  2  0
  5  6  1  0
  6  7  1  0
  7  8  1  0
  8  4  1  0
  1  9  1  0
  2 10  1  0
  2 11  1  0
  3 12  1  0
  3 13  1  0
  5 14  1  0
  6 15  1  0
  6 16  1  0
  8 17  1  0
  8 18  1  0
M  END
