
     RDKit          3D

 21 21  0  0  0  0  0  0  0  0999 V2000
    2.5138   -0.6321   -1.0214 O   0  0  0  0  0  0  0  0  0  0  0  0
    2.2690   -0.0972    0.2649 C   0  0  0  0  0  0  0  0  0  0  0  0
    1.1084    0.8659    0.1585 C   0  0  0  0  0  0  0  0  0  0  0  0
   -0.1466    0.1976   -0.3357 C   0  0  0  0  0  0  0  0  0  0  0  0
   -0.0287   -0.3744   -1.5866 O   0  0  0  0  0  0  0  0  0  0  0  0
   -1.3089    1.1759   -0.2439 C   0  0  0  0  0  0  0  0  0  0  0  0
   -2.1533    0.0218    0.2470 C   0  0  0  0  0  0  0  0  0  0  0  0
   -0.8654   -0.6705    0.6471 C   0  0  0  0  0  0  0  0  0  0  0  0
   -0.9237   -2.0254    0.3261 O   0  0  0  0  0  0  0  0  0  0  0  0
    3.4039   -1.0603   -1.0378 H   0  0  0  0  0  0  0  0  0  0  0  0
    2.1109   -0.8765    1.0101 H   0  0  0  0  0  0  0  0  0  0  0  0
    3.1989    0.4461    0.5290 H   0  0  0  0  0  0  0  0  0  0  0  0
    1.3622    1.6606   -0.5731 H   0  0  0  0  0  0  0  0  0  0  0  0
    0.9663    1.3512    1.1436 H   0  0  0  0  0  0  0  0  0  0  0  0
   -0.9330   -0.6501   -1.9019 H   0  0  0  0  0  0  0  0  0  0  0  0
   -1.5879    1.5750   -1.2366 H   0  0  0  0  0  0  0  0  0  0  0  0
   -1.1675    1.9270    0.5553 H   0  0  0  0  0  0  0  0  0  0  0  0
   -2.8166    0.2858    1.0958 H   0  0  0  0  0  0  0  0  0  0  0  0
   -2.7377   -0.4845   -0.5336 H   0  0  0  0  0  0  0  0  0  0  0  0
   -0.6383   -0.4569    1.7036 H   0  0  0  0  0  0  0  0  0  0  0  0
   -1.6259   -2.1789   -0.3518 H   0  0  0  0  0  0  0  0  0  0  0  0
  1  2  1  0
  2  3  1  0
  3  4  1  0
  4  5  1  0
  4  6  1  0
  6  7  1  0
  7  8  1  0
  8  9  1  0
  8  4  1  0
  1 10  1  0
  2 11  1  0
  2 12  1  0
  3 13  1  0
  3 14  1  0
  5 15  1  0
  6 16  1  0
  6 17  1  0
  7 18  1  0
  7 19  1  0
  8 20  1  0
  9 21  1  0
M  END
