
     RDKit          3D

 23 23  0  0  0  0  0  0  0  0999 V2000
   -2.4848   -1.6153   -0.1154 O   0  0  0  0  0  0  0  0  0  0  0  0
   -2.8560   -0.3865    0.4364 C   0  0  0  0  0  0  0  0  0  0  0  0
   -1.8128    0.6700    0.0632 C   0  0  0  0  0  0  0  0  0  0  0  0
   -0.4872    0.2223    0.6200 C   0  0  0  0  0  0  0  0  0  0  0  0
    0.6703    1.1616    0.3405 C   0  0  0  0  0  0  0  0  0  0  0  0
    1.5098   -0.0916    0.2843 C   0  0  0  0  0  0  0  0  0  0  0  0
    2.6788   -0.0699   -0.6411 C   0  0  0  0  0  0  0  0  0  0  0  0
    3.3126   -1.3178   -0.5385 O   0  0  0  0  0  0  0  0  0  0  0  0
    0.2588   -0.7760   -0.2647 C   0  0  0  0  0  0  0  0  0  0  0  0
   -3.1245   -1.9038   -0.8197 H   0  0  0  0  0  0  0  0  0  0  0  0
   -2.9166   -0.4880    1.5268 H   0  0  0  0  0  0  0  0  0  0  0  0
   -3.8402   -0.1036    0.0145 H   0  0  0  0  0  0  0  0  0  0  0  0
   -2.1077    1.5874    0.6148 H   0  0  0  0  0  0  0  0  0  0  0  0
   -1.7885    0.8269   -1.0217 H   0  0  0  0  0  0  0  0  0  0  0  0
   -0.4975   -0.0886    1.6741 H   0  0  0  0  0  0  0  0  0  0  0  0
    0.9153    1.8656    1.1495 H   0  0  0  0  0  0  0  0  0  0  0  0
    0.4905    1.6413   -0.6612 H   0  0  0  0  0  0  0  0  0  0  0  0
    1.7340   -0.4397    1.2924 H   0  0  0  0  0  0  0  0  0  0  0  0
    3.4064    0.6820   -0.2744 H   0  0  0  0  0  0  0  0  0  0  0  0
    2.4366    0.1151   -1.6846 H   0  0  0  0  0  0  0  0  0  0  0  0
    4.2612   -1.2898   -0.7315 H   0  0  0  0  0  0  0  0  0  0  0  0
    0.0431   -0.5550   -1.3206 H   0  0  0  0  0  0  0  0  0  0  0  0
    0.1985   -1.8136    0.0571 H   0  0  0  0  0  0  0  0  0  0  0  0
  1  2  1  0
  2  3  1  0
  3  4  1  0
  4  5  1  0
  5  6  1  0
  6  7  1  0
  7  8  1  0
  6  9  1  0
  9  4  1  0
  1 10  1  0
  2 11  1  0
  2 12  1  0
  3 13  1  0
  3 14  1  0
  4 15  1  0
  5 16  1  0
  5 17  1  0
  6 18  1  0
  7 19  1  0
  7 20  1  0
  8 21  1  0
  9 22  1  0
  9 23  1  0
M  END
