
     RDKit          3D

 21 22  0  0  0  0  0  0  0  0999 V2000
    1.6405    1.5423    0.9575 O   0  0  0  0  0  0  0  0  0  0  0  0
    2.2051    0.3121    0.6336 C   0  0  0  0  0  0  0  0  0  0  0  0
    1.1718   -0.8009    0.6212 C   0  0  0  0  0  0  0  0  0  0  0  0
    0.0831   -0.5172   -0.3973 C   0  0  0  0  0  0  0  0  0  0  0  0
   -0.9322   -1.6603   -0.3757 C   0  0  0  0  0  0  0  0  0  0  0  0
   -2.0341   -0.6694   -0.1908 C   0  0  0  0  0  0  0  0  0  0  0  0
   -0.9892    0.4043   -0.0024 C   0  0  0  0  0  0  0  0  0  0  0  0
   -1.2366    1.7249   -0.2148 C   0  0  0  0  0  0  0  0  0  0  0  0
   -0.9598    1.1606    1.1333 O   0  0  0  0  0  0  0  0  0  0  0  0
    2.2070    2.2305    0.5195 H   0  0  0  0  0  0  0  0  0  0  0  0
    3.0058    0.0225    1.3431 H   0  0  0  0  0  0  0  0  0  0  0  0
    2.7184    0.3823   -0.3679 H   0  0  0  0  0  0  0  0  0  0  0  0
    0.7650   -0.9077    1.6290 H   0  0  0  0  0  0  0  0  0  0  0  0
    1.7101   -1.7382    0.3724 H   0  0  0  0  0  0  0  0  0  0  0  0
    0.5158   -0.4045   -1.4093 H   0  0  0  0  0  0  0  0  0  0  0  0
   -0.8507   -2.3106    0.5287 H   0  0  0  0  0  0  0  0  0  0  0  0
   -0.9673   -2.2358   -1.3220 H   0  0  0  0  0  0  0  0  0  0  0  0
   -2.6437   -0.7664    0.7225 H   0  0  0  0  0  0  0  0  0  0  0  0
   -2.6247   -0.4385   -1.1236 H   0  0  0  0  0  0  0  0  0  0  0  0
   -0.5010    2.5297   -0.4563 H   0  0  0  0  0  0  0  0  0  0  0  0
   -2.2832    2.1404   -0.2256 H   0  0  0  0  0  0  0  0  0  0  0  0
  1  2  1  0
  2  3  1  0
  3  4  1  0
  4  5  1  0
  5  6  1  0
  6  7  1  0
  7  8  1  0
  8  9  1  0
  7  4  1  0
  9  7  1  0
  1 10  1  0
  2 11  1  0
  2 12  1  0
  3 13  1  0
  3 14  1  0
  4 15  1  0
  5 16  1  0
  5 17  1  0
  6 18  1  0
  6 19  1  0
  8 20  1  0
  8 21  1  0
M  END
