
     RDKit          3D

 19 19  0  0  0  0  0  0  0  0999 V2000
   -2.0266    1.7347   -0.5751 O   0  0  0  0  0  0  0  0  0  0  0  0
   -2.8154    0.5934   -0.4424 C   0  0  0  0  0  0  0  0  0  0  0  0
   -2.2869   -0.2764    0.6735 C   0  0  0  0  0  0  0  0  0  0  0  0
   -0.9115   -0.7013    0.4148 C   0  0  0  0  0  0  0  0  0  0  0  0
    0.2326   -1.0366    0.2088 C   0  0  0  0  0  0  0  0  0  0  0  0
    1.6301   -1.4620   -0.0236 C   0  0  0  0  0  0  0  0  0  0  0  0
    2.6077   -0.4600    0.4885 C   0  0  0  0  0  0  0  0  0  0  0  0
    2.6799    0.9017    0.0337 C   0  0  0  0  0  0  0  0  0  0  0  0
    3.5561   -0.0779   -0.5779 O   0  0  0  0  0  0  0  0  0  0  0  0
   -2.6420    2.4789   -0.7752 H   0  0  0  0  0  0  0  0  0  0  0  0
   -2.7765    0.0464   -1.3964 H   0  0  0  0  0  0  0  0  0  0  0  0
   -3.8648    0.8608   -0.2162 H   0  0  0  0  0  0  0  0  0  0  0  0
   -2.9806   -1.1313    0.8125 H   0  0  0  0  0  0  0  0  0  0  0  0
   -2.2782    0.3687    1.5975 H   0  0  0  0  0  0  0  0  0  0  0  0
    1.8058   -2.4596    0.4775 H   0  0  0  0  0  0  0  0  0  0  0  0
    1.6996   -1.6679   -1.1091 H   0  0  0  0  0  0  0  0  0  0  0  0
    3.1047   -0.7242    1.4402 H   0  0  0  0  0  0  0  0  0  0  0  0
    3.2528    1.6296    0.6522 H   0  0  0  0  0  0  0  0  0  0  0  0
    2.0133    1.3832   -0.6886 H   0  0  0  0  0  0  0  0  0  0  0  0
  1  2  1  0
  2  3  1  0
  3  4  1  0
  4  5  3  0
  5  6  1  0
  6  7  1  0
  7  8  1  0
  8  9  1  0
  9  7  1  0
  1 10  1  0
  2 11  1  0
  2 12  1  0
  3 13  1  0
  3 14  1  0
  6 15  1  0
  6 16  1  0
  7 17  1  0
  8 18  1  0
  8 19  1  0
M  END
