
     RDKit          3D

 19 20  0  0  0  0  0  0  0  0999 V2000
    3.3277    0.2883   -0.0955 O   0  0  0  0  0  0  0  0  0  0  0  0
    2.1720    0.0648    0.6398 C   0  0  0  0  0  0  0  0  0  0  0  0
    1.0093    0.6700   -0.1131 C   0  0  0  0  0  0  0  0  0  0  0  0
   -0.2468    0.4096    0.7177 C   0  0  0  0  0  0  0  0  0  0  0  0
   -1.5636    0.8825    0.2469 C   0  0  0  0  0  0  0  0  0  0  0  0
   -1.8407    0.9668   -1.1087 O   0  0  0  0  0  0  0  0  0  0  0  0
   -1.5931   -0.3996   -1.3315 C   0  0  0  0  0  0  0  0  0  0  0  0
   -1.1956   -0.5503    0.1142 C   0  0  0  0  0  0  0  0  0  0  0  0
   -1.7566   -1.5272    0.8996 O   0  0  0  0  0  0  0  0  0  0  0  0
    3.5083   -0.5224   -0.6231 H   0  0  0  0  0  0  0  0  0  0  0  0
    2.2473    0.6073    1.6096 H   0  0  0  0  0  0  0  0  0  0  0  0
    2.0515   -1.0033    0.8093 H   0  0  0  0  0  0  0  0  0  0  0  0
    0.9437    0.1861   -1.0991 H   0  0  0  0  0  0  0  0  0  0  0  0
    1.1868    1.7442   -0.2672 H   0  0  0  0  0  0  0  0  0  0  0  0
   -0.1272    0.3521    1.8193 H   0  0  0  0  0  0  0  0  0  0  0  0
   -2.3325    1.2141    0.9690 H   0  0  0  0  0  0  0  0  0  0  0  0
   -0.7586   -0.4771   -2.0651 H   0  0  0  0  0  0  0  0  0  0  0  0
   -2.5331   -0.8976   -1.6192 H   0  0  0  0  0  0  0  0  0  0  0  0
   -2.4987   -2.0082    0.4970 H   0  0  0  0  0  0  0  0  0  0  0  0
  1  2  1  0
  2  3  1  0
  3  4  1  0
  4  5  1  0
  5  6  1  0
  6  7  1  0
  7  8  1  0
  8  9  1  0
  8  4  1  0
  8  5  1  0
  1 10  1  0
  2 11  1  0
  2 12  1  0
  3 13  1  0
  3 14  1  0
  4 15  1  0
  5 16  1  0
  7 17  1  0
  7 18  1  0
  9 19  1  0
M  END
