
     RDKit          3D

 21 22  0  0  0  0  0  0  0  0999 V2000
    2.2029    1.3398    0.3474 O   0  0  0  0  0  0  0  0  0  0  0  0
    2.5089    0.2916   -0.4799 C   0  0  0  0  0  0  0  0  0  0  0  0
    1.4842   -0.7902   -0.4876 C   0  0  0  0  0  0  0  0  0  0  0  0
    0.1046   -0.3355   -0.9428 C   0  0  0  0  0  0  0  0  0  0  0  0
   -0.6151    0.6564   -0.2717 C   0  0  0  0  0  0  0  0  0  0  0  0
   -1.9708    1.1259   -0.1193 C   0  0  0  0  0  0  0  0  0  0  0  0
   -2.5928    0.3033    0.7117 C   0  0  0  0  0  0  0  0  0  0  0  0
   -1.5779   -0.7577    1.1093 C   0  0  0  0  0  0  0  0  0  0  0  0
   -0.9987   -0.8632   -0.2775 C   0  0  0  0  0  0  0  0  0  0  0  0
    2.7137    1.3673    1.1921 H   0  0  0  0  0  0  0  0  0  0  0  0
    2.7911    0.6356   -1.5020 H   0  0  0  0  0  0  0  0  0  0  0  0
    3.4541   -0.1707   -0.0747 H   0  0  0  0  0  0  0  0  0  0  0  0
    1.4399   -1.2091    0.5541 H   0  0  0  0  0  0  0  0  0  0  0  0
    1.8317   -1.6270   -1.1200 H   0  0  0  0  0  0  0  0  0  0  0  0
    0.0968   -0.2813   -2.0787 H   0  0  0  0  0  0  0  0  0  0  0  0
   -0.0641    1.0188    0.6643 H   0  0  0  0  0  0  0  0  0  0  0  0
   -2.3952    2.0151   -0.6160 H   0  0  0  0  0  0  0  0  0  0  0  0
   -3.5957    0.3566    1.0449 H   0  0  0  0  0  0  0  0  0  0  0  0
   -0.9000   -0.2546    1.8260 H   0  0  0  0  0  0  0  0  0  0  0  0
   -2.0564   -1.6615    1.4750 H   0  0  0  0  0  0  0  0  0  0  0  0
   -1.8613   -1.1597   -0.9546 H   0  0  0  0  0  0  0  0  0  0  0  0
  1  2  1  0
  2  3  1  0
  3  4  1  0
  4  5  1  0
  5  6  1  0
  6  7  2  0
  7  8  1  0
  8  9  1  0
  9  4  1  0
  9  5  1  0
  1 10  1  0
  2 11  1  0
  2 12  1  0
  3 13  1  0
  3 14  1  0
  4 15  1  0
  5 16  1  0
  6 17  1  0
  7 18  1  0
  8 19  1  0
  8 20  1  0
  9 21  1  0
M  END
