
     RDKit          3D

 21 22  0  0  0  0  0  0  0  0999 V2000
    1.7810    1.6257   -0.2698 O   0  0  0  0  0  0  0  0  0  0  0  0
    2.2327    0.4930    0.3538 C   0  0  0  0  0  0  0  0  0  0  0  0
    1.1189   -0.4924    0.6890 C   0  0  0  0  0  0  0  0  0  0  0  0
    0.3862   -0.9577   -0.5186 C   0  0  0  0  0  0  0  0  0  0  0  0
   -0.7277   -1.9336   -0.2460 C   0  0  0  0  0  0  0  0  0  0  0  0
   -0.9249   -0.5626   -0.9681 C   0  0  0  0  0  0  0  0  0  0  0  0
   -1.9092    0.3060   -0.2949 C   0  0  0  0  0  0  0  0  0  0  0  0
   -1.7522    1.6662    0.0941 C   0  0  0  0  0  0  0  0  0  0  0  0
   -1.6002    0.6905    1.0725 O   0  0  0  0  0  0  0  0  0  0  0  0
    2.0762    2.4212    0.2568 H   0  0  0  0  0  0  0  0  0  0  0  0
    2.7222    0.7325    1.3244 H   0  0  0  0  0  0  0  0  0  0  0  0
    2.9281   -0.0451   -0.3437 H   0  0  0  0  0  0  0  0  0  0  0  0
    1.6733   -1.3989    1.0855 H   0  0  0  0  0  0  0  0  0  0  0  0
    0.5070   -0.1617    1.5355 H   0  0  0  0  0  0  0  0  0  0  0  0
    1.0983   -1.3530   -1.3033 H   0  0  0  0  0  0  0  0  0  0  0  0
   -1.0932   -2.0158    0.7801 H   0  0  0  0  0  0  0  0  0  0  0  0
   -0.8656   -2.8184   -0.8842 H   0  0  0  0  0  0  0  0  0  0  0  0
   -1.1286   -0.6583   -2.0787 H   0  0  0  0  0  0  0  0  0  0  0  0
   -2.9586   -0.1183   -0.2894 H   0  0  0  0  0  0  0  0  0  0  0  0
   -0.8876    2.2838   -0.2143 H   0  0  0  0  0  0  0  0  0  0  0  0
   -2.6763    2.2970    0.2194 H   0  0  0  0  0  0  0  0  0  0  0  0
  1  2  1  0
  2  3  1  0
  3  4  1  0
  4  5  1  0
  5  6  1  0
  6  7  1  0
  7  8  1  0
  8  9  1  0
  6  4  1  0
  9  7  1  0
  1 10  1  0
  2 11  1  0
  2 12  1  0
  3 13  1  0
  3 14  1  0
  4 15  1  0
  5 16  1  0
  5 17  1  0
  6 18  1  0
  7 19  1  0
  8 20  1  0
  8 21  1  0
M  END
