
     RDKit          3D

 21 21  0  0  0  0  0  0  0  0999 V2000
    2.5895    1.1323   -0.7157 O   0  0  0  0  0  0  0  0  0  0  0  0
    2.3944   -0.2351   -0.7604 C   0  0  0  0  0  0  0  0  0  0  0  0
    1.3975   -0.7040    0.2820 C   0  0  0  0  0  0  0  0  0  0  0  0
    0.0699   -0.0752    0.0977 C   0  0  0  0  0  0  0  0  0  0  0  0
   -0.2988    0.7938   -0.8248 C   0  0  0  0  0  0  0  0  0  0  0  0
   -1.7134    1.1356   -0.6073 C   0  0  0  0  0  0  0  0  0  0  0  0
   -2.2660   -0.0666    0.1187 C   0  0  0  0  0  0  0  0  0  0  0  0
   -1.0853   -0.4031    1.0166 C   0  0  0  0  0  0  0  0  0  0  0  0
   -1.0682   -1.7530    1.2436 O   0  0  0  0  0  0  0  0  0  0  0  0
    2.2825    1.5544    0.1261 H   0  0  0  0  0  0  0  0  0  0  0  0
    2.1120   -0.5921   -1.7781 H   0  0  0  0  0  0  0  0  0  0  0  0
    3.3703   -0.7116   -0.5332 H   0  0  0  0  0  0  0  0  0  0  0  0
    1.7866   -0.3563    1.2727 H   0  0  0  0  0  0  0  0  0  0  0  0
    1.3352   -1.8065    0.2338 H   0  0  0  0  0  0  0  0  0  0  0  0
    0.3426    1.2016   -1.6299 H   0  0  0  0  0  0  0  0  0  0  0  0
   -2.2271    1.3115   -1.5749 H   0  0  0  0  0  0  0  0  0  0  0  0
   -1.8437    2.0006    0.0861 H   0  0  0  0  0  0  0  0  0  0  0  0
   -3.1708    0.1700    0.7021 H   0  0  0  0  0  0  0  0  0  0  0  0
   -2.4963   -0.8529   -0.5996 H   0  0  0  0  0  0  0  0  0  0  0  0
   -1.0883    0.2282    1.9114 H   0  0  0  0  0  0  0  0  0  0  0  0
   -0.4225   -1.9717    1.9331 H   0  0  0  0  0  0  0  0  0  0  0  0
  1  2  1  0
  2  3  1  0
  3  4  1  0
  4  5  2  0
  5  6  1  0
  6  7  1  0
  7  8  1  0
  8  9  1  0
  8  4  1  0
  1 10  1  0
  2 11  1  0
  2 12  1  0
  3 13  1  0
  3 14  1  0
  5 15  1  0
  6 16  1  0
  6 17  1  0
  7 18  1  0
  7 19  1  0
  8 20  1  0
  9 21  1  0
M  END
