
     RDKit          3D

 20 20  0  0  0  0  0  0  0  0999 V2000
    3.2352   -0.2598   -0.4375 O   0  0  0  0  0  0  0  0  0  0  0  0
    1.8554   -0.4423   -0.3984 C   0  0  0  0  0  0  0  0  0  0  0  0
    1.2231    0.6316    0.4278 C   0  0  0  0  0  0  0  0  0  0  0  0
   -0.2434    0.5596    0.5544 C   0  0  0  0  0  0  0  0  0  0  0  0
   -1.0354    0.6370   -0.7018 C   0  0  0  0  0  0  0  0  0  0  0  0
   -2.3775    0.2174   -0.2100 C   0  0  0  0  0  0  0  0  0  0  0  0
   -2.2242   -0.5812    0.8366 C   0  0  0  0  0  0  0  0  0  0  0  0
   -0.7583   -0.7534    1.1211 C   0  0  0  0  0  0  0  0  0  0  0  0
    3.5853   -0.1797   -1.3594 H   0  0  0  0  0  0  0  0  0  0  0  0
    1.6857   -1.4618    0.0009 H   0  0  0  0  0  0  0  0  0  0  0  0
    1.5082   -0.4592   -1.4468 H   0  0  0  0  0  0  0  0  0  0  0  0
    1.6708    0.6012    1.4409 H   0  0  0  0  0  0  0  0  0  0  0  0
    1.4924    1.6184    0.0006 H   0  0  0  0  0  0  0  0  0  0  0  0
   -0.5955    1.3599    1.2327 H   0  0  0  0  0  0  0  0  0  0  0  0
   -1.0533    1.6465   -1.1581 H   0  0  0  0  0  0  0  0  0  0  0  0
   -0.7382   -0.1329   -1.4594 H   0  0  0  0  0  0  0  0  0  0  0  0
   -3.3154    0.5209   -0.6436 H   0  0  0  0  0  0  0  0  0  0  0  0
   -2.9918   -1.0594    1.4280 H   0  0  0  0  0  0  0  0  0  0  0  0
   -0.5499   -0.8621    2.1882 H   0  0  0  0  0  0  0  0  0  0  0  0
   -0.3733   -1.6008    0.5065 H   0  0  0  0  0  0  0  0  0  0  0  0
  1  2  1  0
  2  3  1  0
  3  4  1  0
  4  5  1  0
  5  6  1  0
  6  7  2  0
  7  8  1  0
  8  4  1  0
  1  9  1  0
  2 10  1  0
  2 11  1  0
  3 12  1  0
  3 13  1  0
  4 14  1  0
  5 15  1  0
  5 16  1  0
  6 17  1  0
  7 18  1  0
  8 19  1  0
  8 20  1  0
M  END
