
     RDKit          3D

 19 20  0  0  0  0  0  0  0  0999 V2000
   -2.5332    0.9378    1.2069 O   0  0  0  0  0  0  0  0  0  0  0  0
   -2.7702   -0.2188    0.4899 C   0  0  0  0  0  0  0  0  0  0  0  0
   -1.4439   -0.9856    0.4366 C   0  0  0  0  0  0  0  0  0  0  0  0
   -0.4308   -0.1067   -0.2493 C   0  0  0  0  0  0  0  0  0  0  0  0
   -0.0982    1.1166    0.2618 O   0  0  0  0  0  0  0  0  0  0  0  0
    0.8918    0.0771    0.3569 C   0  0  0  0  0  0  0  0  0  0  0  0
    2.0740    0.1913   -0.5491 C   0  0  0  0  0  0  0  0  0  0  0  0
    3.4195    0.1815   -0.1123 C   0  0  0  0  0  0  0  0  0  0  0  0
    2.8080    1.4310   -0.3002 O   0  0  0  0  0  0  0  0  0  0  0  0
   -2.8522    1.7272    0.7056 H   0  0  0  0  0  0  0  0  0  0  0  0
   -3.1407   -0.0029   -0.5387 H   0  0  0  0  0  0  0  0  0  0  0  0
   -3.5171   -0.8205    1.0328 H   0  0  0  0  0  0  0  0  0  0  0  0
   -1.1724   -1.2211    1.4864 H   0  0  0  0  0  0  0  0  0  0  0  0
   -1.5980   -1.8865   -0.1689 H   0  0  0  0  0  0  0  0  0  0  0  0
   -0.4714   -0.1702   -1.3548 H   0  0  0  0  0  0  0  0  0  0  0  0
    1.0809   -0.1539    1.4280 H   0  0  0  0  0  0  0  0  0  0  0  0
    1.8525    0.0244   -1.6268 H   0  0  0  0  0  0  0  0  0  0  0  0
    4.2406    0.0052   -0.8366 H   0  0  0  0  0  0  0  0  0  0  0  0
    3.6608   -0.1259    0.9354 H   0  0  0  0  0  0  0  0  0  0  0  0
  1  2  1  0
  2  3  1  0
  3  4  1  0
  4  5  1  0
  5  6  1  0
  6  7  1  0
  7  8  1  0
  8  9  1  0
  6  4  1  0
  9  7  1  0
  1 10  1  0
  2 11  1  0
  2 12  1  0
  3 13  1  0
  3 14  1  0
  4 15  1  0
  6 16  1  0
  7 17  1  0
  8 18  1  0
  8 19  1  0
M  END
