
     RDKit          3D

 23 23  0  0  0  0  0  0  0  0999 V2000
    3.8842    0.8238   -0.3947 O   0  0  0  0  0  0  0  0  0  0  0  0
    2.9239   -0.1404   -0.1425 C   0  0  0  0  0  0  0  0  0  0  0  0
    1.5575    0.4826    0.0978 C   0  0  0  0  0  0  0  0  0  0  0  0
    0.5583   -0.6082    0.3652 C   0  0  0  0  0  0  0  0  0  0  0  0
   -0.8093    0.0210    0.6054 C   0  0  0  0  0  0  0  0  0  0  0  0
   -1.9123   -0.9457    0.8866 C   0  0  0  0  0  0  0  0  0  0  0  0
   -2.7228   -0.3739   -0.2812 C   0  0  0  0  0  0  0  0  0  0  0  0
   -1.4530    0.3065   -0.7454 C   0  0  0  0  0  0  0  0  0  0  0  0
   -1.5449    1.6654   -0.9518 O   0  0  0  0  0  0  0  0  0  0  0  0
    3.5462    1.4635   -1.0689 H   0  0  0  0  0  0  0  0  0  0  0  0
    3.2526   -0.7635    0.7120 H   0  0  0  0  0  0  0  0  0  0  0  0
    2.8409   -0.7733   -1.0621 H   0  0  0  0  0  0  0  0  0  0  0  0
    1.2783    1.0196   -0.8296 H   0  0  0  0  0  0  0  0  0  0  0  0
    1.6281    1.1988    0.9596 H   0  0  0  0  0  0  0  0  0  0  0  0
    0.8512   -1.2108    1.2405 H   0  0  0  0  0  0  0  0  0  0  0  0
    0.5365   -1.2582   -0.5344 H   0  0  0  0  0  0  0  0  0  0  0  0
   -0.7360    0.9002    1.2773 H   0  0  0  0  0  0  0  0  0  0  0  0
   -1.5868   -1.9934    0.7106 H   0  0  0  0  0  0  0  0  0  0  0  0
   -2.4549   -0.7934    1.8468 H   0  0  0  0  0  0  0  0  0  0  0  0
   -3.5123    0.3352    0.0312 H   0  0  0  0  0  0  0  0  0  0  0  0
   -3.0975   -1.1458   -0.9759 H   0  0  0  0  0  0  0  0  0  0  0  0
   -1.0042   -0.2554   -1.5864 H   0  0  0  0  0  0  0  0  0  0  0  0
   -2.0236    2.0453   -0.1602 H   0  0  0  0  0  0  0  0  0  0  0  0
  1  2  1  0
  2  3  1  0
  3  4  1  0
  4  5  1  0
  5  6  1  0
  6  7  1  0
  7  8  1  0
  8  9  1  0
  8  5  1  0
  1 10  1  0
  2 11  1  0
  2 12  1  0
  3 13  1  0
  3 14  1  0
  4 15  1  0
  4 16  1  0
  5 17  1  0
  6 18  1  0
  6 19  1  0
  7 20  1  0
  7 21  1  0
  8 22  1  0
  9 23  1  0
M  END
