
     RDKit          3D

 21 21  0  0  0  0  0  0  0  0999 V2000
    2.5409    0.8996    0.8861 O   0  0  0  0  0  0  0  0  0  0  0  0
    1.7794    0.9487   -0.2675 C   0  0  0  0  0  0  0  0  0  0  0  0
    1.3162   -0.4228   -0.7103 C   0  0  0  0  0  0  0  0  0  0  0  0
    0.4686   -1.0916    0.3448 C   0  0  0  0  0  0  0  0  0  0  0  0
    1.2700   -1.2049    1.4885 O   0  0  0  0  0  0  0  0  0  0  0  0
   -0.7459   -0.3256    0.7177 C   0  0  0  0  0  0  0  0  0  0  0  0
   -1.7130   -0.0550   -0.3774 C   0  0  0  0  0  0  0  0  0  0  0  0
   -2.9374    0.7285    0.0448 C   0  0  0  0  0  0  0  0  0  0  0  0
   -3.0581   -0.6424   -0.1978 O   0  0  0  0  0  0  0  0  0  0  0  0
    3.2364    0.2010    0.8299 H   0  0  0  0  0  0  0  0  0  0  0  0
    2.3613    1.4249   -1.0829 H   0  0  0  0  0  0  0  0  0  0  0  0
    0.8829    1.5890   -0.0889 H   0  0  0  0  0  0  0  0  0  0  0  0
    2.2473   -1.0416   -0.8084 H   0  0  0  0  0  0  0  0  0  0  0  0
    0.8554   -0.3701   -1.6927 H   0  0  0  0  0  0  0  0  0  0  0  0
    0.2058   -2.1287    0.0563 H   0  0  0  0  0  0  0  0  0  0  0  0
    0.8662   -0.7591    2.2750 H   0  0  0  0  0  0  0  0  0  0  0  0
   -0.4370    0.6577    1.1566 H   0  0  0  0  0  0  0  0  0  0  0  0
   -1.2614   -0.8677    1.5329 H   0  0  0  0  0  0  0  0  0  0  0  0
   -1.4112    0.0314   -1.4286 H   0  0  0  0  0  0  0  0  0  0  0  0
   -3.3994    1.4414   -0.6416 H   0  0  0  0  0  0  0  0  0  0  0  0
   -3.0671    0.9872    1.1142 H   0  0  0  0  0  0  0  0  0  0  0  0
  1  2  1  0
  2  3  1  0
  3  4  1  0
  4  5  1  0
  4  6  1  0
  6  7  1  0
  7  8  1  0
  8  9  1  0
  9  7  1  0
  1 10  1  0
  2 11  1  0
  2 12  1  0
  3 13  1  0
  3 14  1  0
  4 15  1  0
  5 16  1  0
  6 17  1  0
  6 18  1  0
  7 19  1  0
  8 20  1  0
  8 21  1  0
M  END
