
     RDKit          3D

 20 20  0  0  0  0  0  0  0  0999 V2000
   -2.7202    1.2496   -0.3161 O   0  0  0  0  0  0  0  0  0  0  0  0
   -2.3802   -0.1017   -0.3447 C   0  0  0  0  0  0  0  0  0  0  0  0
   -1.1486   -0.2926    0.5445 C   0  0  0  0  0  0  0  0  0  0  0  0
   -0.0652    0.5818   -0.0623 C   0  0  0  0  0  0  0  0  0  0  0  0
    0.1237    0.0988   -1.3788 O   0  0  0  0  0  0  0  0  0  0  0  0
    1.2177    0.4503    0.6896 C   0  0  0  0  0  0  0  0  0  0  0  0
    1.8192   -0.9125    0.7515 C   0  0  0  0  0  0  0  0  0  0  0  0
    2.4986    0.1052   -0.0880 C   0  0  0  0  0  0  0  0  0  0  0  0
   -2.2983    1.6778   -1.1026 H   0  0  0  0  0  0  0  0  0  0  0  0
   -3.2127   -0.7539    0.0102 H   0  0  0  0  0  0  0  0  0  0  0  0
   -2.0758   -0.4010   -1.3566 H   0  0  0  0  0  0  0  0  0  0  0  0
   -0.8559   -1.3548    0.5981 H   0  0  0  0  0  0  0  0  0  0  0  0
   -1.3950    0.0378    1.5838 H   0  0  0  0  0  0  0  0  0  0  0  0
   -0.4560    1.5999   -0.1351 H   0  0  0  0  0  0  0  0  0  0  0  0
    0.1223   -0.8894   -1.3386 H   0  0  0  0  0  0  0  0  0  0  0  0
    1.3876    1.1641    1.5449 H   0  0  0  0  0  0  0  0  0  0  0  0
    1.2444   -1.7396    0.2946 H   0  0  0  0  0  0  0  0  0  0  0  0
    2.3627   -1.2309    1.6669 H   0  0  0  0  0  0  0  0  0  0  0  0
    3.4549    0.5377    0.2914 H   0  0  0  0  0  0  0  0  0  0  0  0
    2.3766    0.1735   -1.1685 H   0  0  0  0  0  0  0  0  0  0  0  0
  1  2  1  0
  2  3  1  0
  3  4  1  0
  4  5  1  0
  4  6  1  0
  6  7  1  0
  7  8  1  0
  8  6  1  0
  1  9  1  0
  2 10  1  0
  2 11  1  0
  3 12  1  0
  3 13  1  0
  4 14  1  0
  5 15  1  0
  6 16  1  0
  7 17  1  0
  7 18  1  0
  8 19  1  0
  8 20  1  0
M  END
