
     RDKit          3D

 19 20  0  0  0  0  0  0  0  0999 V2000
   -2.0676    0.5038    1.1427 O   0  0  0  0  0  0  0  0  0  0  0  0
   -2.1934    0.5960   -0.2248 C   0  0  0  0  0  0  0  0  0  0  0  0
   -1.4941   -0.5311   -0.9424 C   0  0  0  0  0  0  0  0  0  0  0  0
   -0.0263   -0.5796   -0.6639 C   0  0  0  0  0  0  0  0  0  0  0  0
    0.6469    0.5698   -1.0408 O   0  0  0  0  0  0  0  0  0  0  0  0
    1.9388    0.3305   -0.5775 C   0  0  0  0  0  0  0  0  0  0  0  0
    2.3460    0.7346    0.7941 C   0  0  0  0  0  0  0  0  0  0  0  0
    1.6704   -0.5663    0.6615 C   0  0  0  0  0  0  0  0  0  0  0  0
    0.2667   -0.6414    0.7016 O   0  0  0  0  0  0  0  0  0  0  0  0
   -2.8802    0.1629    1.5881 H   0  0  0  0  0  0  0  0  0  0  0  0
   -1.8854    1.5976   -0.6192 H   0  0  0  0  0  0  0  0  0  0  0  0
   -3.2805    0.5175   -0.4607 H   0  0  0  0  0  0  0  0  0  0  0  0
   -1.6447   -0.4525   -2.0191 H   0  0  0  0  0  0  0  0  0  0  0  0
   -1.9379   -1.4760   -0.5621 H   0  0  0  0  0  0  0  0  0  0  0  0
    0.4089   -1.4665   -1.1269 H   0  0  0  0  0  0  0  0  0  0  0  0
    2.7117   -0.0262   -1.2880 H   0  0  0  0  0  0  0  0  0  0  0  0
    1.8175    1.5438    1.3383 H   0  0  0  0  0  0  0  0  0  0  0  0
    3.4246    0.7098    0.9948 H   0  0  0  0  0  0  0  0  0  0  0  0
    2.1785   -1.5268    0.6216 H   0  0  0  0  0  0  0  0  0  0  0  0
  1  2  1  0
  2  3  1  0
  3  4  1  0
  4  5  1  0
  5  6  1  0
  6  7  1  0
  7  8  1  0
  8  9  1  0
  9  4  1  0
  8  6  1  0
  1 10  1  0
  2 11  1  0
  2 12  1  0
  3 13  1  0
  3 14  1  0
  4 15  1  0
  6 16  1  0
  7 17  1  0
  7 18  1  0
  8 19  1  0
M  END
