
     RDKit          3D

 23 23  0  0  0  0  0  0  0  0999 V2000
    2.6053    0.4482    0.7778 O   0  0  0  0  0  0  0  0  0  0  0  0
    2.0466   -0.5966    0.1142 C   0  0  0  0  0  0  0  0  0  0  0  0
    1.0449   -0.2491   -0.8969 C   0  0  0  0  0  0  0  0  0  0  0  0
   -0.2125    0.4221   -0.5502 C   0  0  0  0  0  0  0  0  0  0  0  0
   -0.0865    1.7597    0.0940 C   0  0  0  0  0  0  0  0  0  0  0  0
    0.5744    1.6734    1.2918 O   0  0  0  0  0  0  0  0  0  0  0  0
   -1.1116   -0.4107    0.3449 C   0  0  0  0  0  0  0  0  0  0  0  0
   -1.6015   -1.7280   -0.1193 C   0  0  0  0  0  0  0  0  0  0  0  0
   -2.5359   -0.5566   -0.1569 C   0  0  0  0  0  0  0  0  0  0  0  0
    3.0254    0.2249    1.6343 H   0  0  0  0  0  0  0  0  0  0  0  0
    2.8966   -1.1114   -0.4397 H   0  0  0  0  0  0  0  0  0  0  0  0
    1.6571   -1.3607    0.8403 H   0  0  0  0  0  0  0  0  0  0  0  0
    0.7934   -1.1771   -1.5240 H   0  0  0  0  0  0  0  0  0  0  0  0
    1.5824    0.3785   -1.6932 H   0  0  0  0  0  0  0  0  0  0  0  0
   -0.8208    0.5715   -1.5124 H   0  0  0  0  0  0  0  0  0  0  0  0
    0.4888    2.4342   -0.5853 H   0  0  0  0  0  0  0  0  0  0  0  0
   -1.0999    2.1806    0.3000 H   0  0  0  0  0  0  0  0  0  0  0  0
    0.8802    2.5442    1.6034 H   0  0  0  0  0  0  0  0  0  0  0  0
   -0.9784   -0.1856    1.4197 H   0  0  0  0  0  0  0  0  0  0  0  0
   -1.8346   -2.4728    0.6553 H   0  0  0  0  0  0  0  0  0  0  0  0
   -1.1427   -2.1335   -1.0217 H   0  0  0  0  0  0  0  0  0  0  0  0
   -2.8008   -0.1372   -1.1468 H   0  0  0  0  0  0  0  0  0  0  0  0
   -3.3700   -0.5181    0.5706 H   0  0  0  0  0  0  0  0  0  0  0  0
  1  2  1  0
  2  3  1  0
  3  4  1  0
  4  5  1  0
  5  6  1  0
  4  7  1  0
  7  8  1  0
  8  9  1  0
  9  7  1  0
  1 10  1  0
  2 11  1  0
  2 12  1  0
  3 13  1  0
  3 14  1  0
  4 15  1  0
  5 16  1  0
  5 17  1  0
  6 18  1  0
  7 19  1  0
  8 20  1  0
  8 21  1  0
  9 22  1  0
  9 23  1  0
M  END
