
     RDKit          3D

 21 23  0  0  0  0  0  0  0  0999 V2000
    2.3928    1.2026   -0.2258 O   0  0  0  0  0  0  0  0  0  0  0  0
    2.2708   -0.0050    0.4232 C   0  0  0  0  0  0  0  0  0  0  0  0
    1.2063   -0.8937   -0.1492 C   0  0  0  0  0  0  0  0  0  0  0  0
   -0.1358   -0.4310   -0.1638 C   0  0  0  0  0  0  0  0  0  0  0  0
   -0.8189    0.6949   -0.7539 C   0  0  0  0  0  0  0  0  0  0  0  0
   -1.1527    1.1820    0.6621 C   0  0  0  0  0  0  0  0  0  0  0  0
   -1.0244   -0.2997    1.0501 C   0  0  0  0  0  0  0  0  0  0  0  0
   -1.3903   -1.1652   -0.0896 C   0  0  0  0  0  0  0  0  0  0  0  0
   -1.8908   -0.2873   -1.2542 C   0  0  0  0  0  0  0  0  0  0  0  0
    2.2234    1.9848    0.3741 H   0  0  0  0  0  0  0  0  0  0  0  0
    3.2663   -0.4951    0.4030 H   0  0  0  0  0  0  0  0  0  0  0  0
    2.0745    0.2214    1.5009 H   0  0  0  0  0  0  0  0  0  0  0  0
    1.2797   -1.8659    0.4263 H   0  0  0  0  0  0  0  0  0  0  0  0
    1.5482   -1.1786   -1.1808 H   0  0  0  0  0  0  0  0  0  0  0  0
   -0.4135    1.3834   -1.4405 H   0  0  0  0  0  0  0  0  0  0  0  0
   -0.4019    1.8370    1.0830 H   0  0  0  0  0  0  0  0  0  0  0  0
   -2.2082    1.4949    0.6955 H   0  0  0  0  0  0  0  0  0  0  0  0
   -0.7244   -0.6035    2.0272 H   0  0  0  0  0  0  0  0  0  0  0  0
   -1.5476   -2.2182   -0.0788 H   0  0  0  0  0  0  0  0  0  0  0  0
   -1.6709   -0.6997   -2.2340 H   0  0  0  0  0  0  0  0  0  0  0  0
   -2.8826    0.1421   -1.0747 H   0  0  0  0  0  0  0  0  0  0  0  0
  1  2  1  0
  2  3  1  0
  3  4  1  0
  4  5  1  0
  5  6  1  0
  6  7  1  0
  7  8  1  0
  8  9  1  0
  7  4  1  0
  8  4  1  0
  9  5  1  0
  1 10  1  0
  2 11  1  0
  2 12  1  0
  3 13  1  0
  3 14  1  0
  5 15  1  0
  6 16  1  0
  6 17  1  0
  7 18  1  0
  8 19  1  0
  9 20  1  0
  9 21  1  0
M  END
