
     RDKit          3D

 19 20  0  0  0  0  0  0  0  0999 V2000
    2.9286    0.9604   -0.2659 O   0  0  0  0  0  0  0  0  0  0  0  0
    1.9574   -0.0556   -0.2766 C   0  0  0  0  0  0  0  0  0  0  0  0
    0.7230    0.5325    0.3632 C   0  0  0  0  0  0  0  0  0  0  0  0
   -0.4206   -0.4520    0.4243 C   0  0  0  0  0  0  0  0  0  0  0  0
   -0.1917   -1.5997    1.1291 O   0  0  0  0  0  0  0  0  0  0  0  0
   -0.9878   -0.6847   -0.9669 C   0  0  0  0  0  0  0  0  0  0  0  0
   -2.1164    0.2484   -0.5995 C   0  0  0  0  0  0  0  0  0  0  0  0
   -1.8658    1.4513    0.0083 O   0  0  0  0  0  0  0  0  0  0  0  0
   -1.7070    0.2890    0.7417 C   0  0  0  0  0  0  0  0  0  0  0  0
    2.5509    1.8385   -0.0534 H   0  0  0  0  0  0  0  0  0  0  0  0
    1.7843   -0.3910   -1.3151 H   0  0  0  0  0  0  0  0  0  0  0  0
    2.3381   -0.9423    0.2826 H   0  0  0  0  0  0  0  0  0  0  0  0
    0.4483    1.4248   -0.2345 H   0  0  0  0  0  0  0  0  0  0  0  0
    1.0159    0.8075    1.4095 H   0  0  0  0  0  0  0  0  0  0  0  0
    0.6463   -1.5861    1.6307 H   0  0  0  0  0  0  0  0  0  0  0  0
   -1.4103   -1.7095   -1.1236 H   0  0  0  0  0  0  0  0  0  0  0  0
   -0.3376   -0.3620   -1.7834 H   0  0  0  0  0  0  0  0  0  0  0  0
   -3.1127    0.1242   -1.0374 H   0  0  0  0  0  0  0  0  0  0  0  0
   -2.2427    0.1064    1.6669 H   0  0  0  0  0  0  0  0  0  0  0  0
  1  2  1  0
  2  3  1  0
  3  4  1  0
  4  5  1  0
  4  6  1  0
  6  7  1  0
  7  8  1  0
  8  9  1  0
  9  4  1  0
  9  7  1  0
  1 10  1  0
  2 11  1  0
  2 12  1  0
  3 13  1  0
  3 14  1  0
  5 15  1  0
  6 16  1  0
  6 17  1  0
  7 18  1  0
  9 19  1  0
M  END
