
     RDKit          3D

 25 24  0  0  0  0  0  0  0  0999 V2000
   -1.6815    1.5127    0.8518 O   0  0  0  0  0  0  0  0  0  0  0  0
   -2.7481    0.8101    0.3027 C   0  0  0  0  0  0  0  0  0  0  0  0
   -2.3510   -0.3432   -0.5560 C   0  0  0  0  0  0  0  0  0  0  0  0
   -1.5586   -1.4124    0.1060 C   0  0  0  0  0  0  0  0  0  0  0  0
   -0.2506   -0.9937    0.6856 C   0  0  0  0  0  0  0  0  0  0  0  0
    0.6890   -0.4129   -0.3630 C   0  0  0  0  0  0  0  0  0  0  0  0
    1.9653   -0.0335    0.3552 C   0  0  0  0  0  0  0  0  0  0  0  0
    2.9847    0.5611   -0.5970 C   0  0  0  0  0  0  0  0  0  0  0  0
    4.1109    0.8675    0.1855 O   0  0  0  0  0  0  0  0  0  0  0  0
   -1.3512    2.1802    0.1954 H   0  0  0  0  0  0  0  0  0  0  0  0
   -3.5156    0.5551    1.0616 H   0  0  0  0  0  0  0  0  0  0  0  0
   -3.2647    1.5452   -0.3830 H   0  0  0  0  0  0  0  0  0  0  0  0
   -3.2770   -0.8259   -0.9626 H   0  0  0  0  0  0  0  0  0  0  0  0
   -1.8293    0.0531   -1.4585 H   0  0  0  0  0  0  0  0  0  0  0  0
   -2.1535   -1.8541    0.9587 H   0  0  0  0  0  0  0  0  0  0  0  0
   -1.4201   -2.2658   -0.5931 H   0  0  0  0  0  0  0  0  0  0  0  0
   -0.3384   -0.2593    1.4859 H   0  0  0  0  0  0  0  0  0  0  0  0
    0.2882   -1.8731    1.1405 H   0  0  0  0  0  0  0  0  0  0  0  0
    0.9432   -1.1946   -1.1141 H   0  0  0  0  0  0  0  0  0  0  0  0
    0.2522    0.4280   -0.9000 H   0  0  0  0  0  0  0  0  0  0  0  0
    1.7647    0.7434    1.1276 H   0  0  0  0  0  0  0  0  0  0  0  0
    2.3973   -0.8987    0.8731 H   0  0  0  0  0  0  0  0  0  0  0  0
    3.2921   -0.1594   -1.3815 H   0  0  0  0  0  0  0  0  0  0  0  0
    2.5814    1.5125   -1.0243 H   0  0  0  0  0  0  0  0  0  0  0  0
    4.4707    1.7576    0.0035 H   0  0  0  0  0  0  0  0  0  0  0  0
  1  2  1  0
  2  3  1  0
  3  4  1  0
  4  5  1  0
  5  6  1  0
  6  7  1  0
  7  8  1  0
  8  9  1  0
  1 10  1  0
  2 11  1  0
  2 12  1  0
  3 13  1  0
  3 14  1  0
  4 15  1  0
  4 16  1  0
  5 17  1  0
  5 18  1  0
  6 19  1  0
  6 20  1  0
  7 21  1  0
  7 22  1  0
  8 23  1  0
  8 24  1  0
  9 25  1  0
M  END
