
     RDKit          3D

 21 21  0  0  0  0  0  0  0  0999 V2000
   -3.4172    0.1871    0.1097 O   0  0  0  0  0  0  0  0  0  0  0  0
   -2.1187    0.7129    0.0636 C   0  0  0  0  0  0  0  0  0  0  0  0
   -1.1724   -0.4599    0.1147 C   0  0  0  0  0  0  0  0  0  0  0  0
    0.2764   -0.0333    0.0720 C   0  0  0  0  0  0  0  0  0  0  0  0
    0.6721    0.7335   -1.1569 C   0  0  0  0  0  0  0  0  0  0  0  0
    2.0424    0.7960   -1.3343 O   0  0  0  0  0  0  0  0  0  0  0  0
    1.1542   -1.2469    0.2944 C   0  0  0  0  0  0  0  0  0  0  0  0
    1.8747   -0.3179    1.2343 C   0  0  0  0  0  0  0  0  0  0  0  0
    0.7583    0.4776    1.2739 O   0  0  0  0  0  0  0  0  0  0  0  0
   -3.4312   -0.7695    0.3069 H   0  0  0  0  0  0  0  0  0  0  0  0
   -2.0264    1.3010   -0.8748 H   0  0  0  0  0  0  0  0  0  0  0  0
   -2.0290    1.3586    0.9731 H   0  0  0  0  0  0  0  0  0  0  0  0
   -1.4119   -1.1098   -0.7517 H   0  0  0  0  0  0  0  0  0  0  0  0
   -1.4068   -1.0390    1.0178 H   0  0  0  0  0  0  0  0  0  0  0  0
    0.2482    0.1964   -2.0307 H   0  0  0  0  0  0  0  0  0  0  0  0
    0.2987    1.7893   -1.1377 H   0  0  0  0  0  0  0  0  0  0  0  0
    2.3932    1.7206   -1.3025 H   0  0  0  0  0  0  0  0  0  0  0  0
    1.7150   -1.5180   -0.6326 H   0  0  0  0  0  0  0  0  0  0  0  0
    0.6345   -2.0960    0.7844 H   0  0  0  0  0  0  0  0  0  0  0  0
    2.1633   -0.7734    2.2128 H   0  0  0  0  0  0  0  0  0  0  0  0
    2.7822    0.0905    0.7635 H   0  0  0  0  0  0  0  0  0  0  0  0
  1  2  1  0
  2  3  1  0
  3  4  1  0
  4  5  1  0
  5  6  1  0
  4  7  1  0
  7  8  1  0
  8  9  1  0
  9  4  1  0
  1 10  1  0
  2 11  1  0
  2 12  1  0
  3 13  1  0
  3 14  1  0
  5 15  1  0
  5 16  1  0
  6 17  1  0
  7 18  1  0
  7 19  1  0
  8 20  1  0
  8 21  1  0
M  END
