
     RDKit          3D

 21 21  0  0  0  0  0  0  0  0999 V2000
   -3.3658    0.5745   -0.0185 O   0  0  0  0  0  0  0  0  0  0  0  0
   -2.2457    0.1298   -0.7433 C   0  0  0  0  0  0  0  0  0  0  0  0
   -1.1700   -0.2552    0.2438 C   0  0  0  0  0  0  0  0  0  0  0  0
    0.0559   -0.7410   -0.5173 C   0  0  0  0  0  0  0  0  0  0  0  0
    1.1436   -1.1310    0.4558 C   0  0  0  0  0  0  0  0  0  0  0  0
    1.9424   -0.0709    0.8300 O   0  0  0  0  0  0  0  0  0  0  0  0
    2.5595    0.5652   -0.2286 C   0  0  0  0  0  0  0  0  0  0  0  0
    1.9588    0.2988   -1.4567 O   0  0  0  0  0  0  0  0  0  0  0  0
    0.5881    0.4785   -1.2814 C   0  0  0  0  0  0  0  0  0  0  0  0
   -3.4105    1.5747   -0.0198 H   0  0  0  0  0  0  0  0  0  0  0  0
   -1.9426    0.8943   -1.4587 H   0  0  0  0  0  0  0  0  0  0  0  0
   -2.5897   -0.7608   -1.3314 H   0  0  0  0  0  0  0  0  0  0  0  0
   -1.5830   -1.0239    0.9155 H   0  0  0  0  0  0  0  0  0  0  0  0
   -0.8567    0.6655    0.7714 H   0  0  0  0  0  0  0  0  0  0  0  0
   -0.1689   -1.5542   -1.2102 H   0  0  0  0  0  0  0  0  0  0  0  0
    0.7122   -1.5659    1.3789 H   0  0  0  0  0  0  0  0  0  0  0  0
    1.7913   -1.9446    0.0170 H   0  0  0  0  0  0  0  0  0  0  0  0
    3.6329    0.3086   -0.3376 H   0  0  0  0  0  0  0  0  0  0  0  0
    2.4794    1.6717   -0.0776 H   0  0  0  0  0  0  0  0  0  0  0  0
    0.3892    1.3715   -0.6401 H   0  0  0  0  0  0  0  0  0  0  0  0
    0.0793    0.5143   -2.2520 H   0  0  0  0  0  0  0  0  0  0  0  0
  1  2  1  0
  2  3  1  0
  3  4  1  0
  4  5  1  0
  5  6  1  0
  6  7  1  0
  7  8  1  0
  8  9  1  0
  9  4  1  0
  1 10  1  0
  2 11  1  0
  2 12  1  0
  3 13  1  0
  3 14  1  0
  4 15  1  0
  5 16  1  0
  5 17  1  0
  7 18  1  0
  7 19  1  0
  9 20  1  0
  9 21  1  0
M  END
