
     RDKit          3D

 21 22  0  0  0  0  0  0  0  0999 V2000
    2.3449    1.0977    0.5840 O   0  0  0  0  0  0  0  0  0  0  0  0
    2.1686    0.4688   -0.6379 C   0  0  0  0  0  0  0  0  0  0  0  0
    1.3074   -0.7715   -0.5076 C   0  0  0  0  0  0  0  0  0  0  0  0
   -0.0584   -0.4929    0.0190 C   0  0  0  0  0  0  0  0  0  0  0  0
   -0.2546    0.1189    1.3472 C   0  0  0  0  0  0  0  0  0  0  0  0
   -1.3492    0.8657    1.3832 C   0  0  0  0  0  0  0  0  0  0  0  0
   -2.0611    0.8716    0.0798 C   0  0  0  0  0  0  0  0  0  0  0  0
   -1.1328    0.0932   -0.8002 C   0  0  0  0  0  0  0  0  0  0  0  0
   -1.1527   -1.4031   -0.5230 C   0  0  0  0  0  0  0  0  0  0  0  0
    2.5862    0.4143    1.2585 H   0  0  0  0  0  0  0  0  0  0  0  0
    3.1526    0.1165   -1.0371 H   0  0  0  0  0  0  0  0  0  0  0  0
    1.6753    1.1190   -1.3832 H   0  0  0  0  0  0  0  0  0  0  0  0
    1.2410   -1.3124   -1.4510 H   0  0  0  0  0  0  0  0  0  0  0  0
    1.8209   -1.4488    0.2331 H   0  0  0  0  0  0  0  0  0  0  0  0
    0.3886    0.0039    2.2214 H   0  0  0  0  0  0  0  0  0  0  0  0
   -1.7201    1.4302    2.2568 H   0  0  0  0  0  0  0  0  0  0  0  0
   -2.2757    1.8868   -0.2918 H   0  0  0  0  0  0  0  0  0  0  0  0
   -3.0282    0.3131    0.2459 H   0  0  0  0  0  0  0  0  0  0  0  0
   -0.8799    0.4466   -1.8087 H   0  0  0  0  0  0  0  0  0  0  0  0
   -0.9091   -2.0075   -1.3970 H   0  0  0  0  0  0  0  0  0  0  0  0
   -1.8637   -1.8099    0.2085 H   0  0  0  0  0  0  0  0  0  0  0  0
  1  2  1  0
  2  3  1  0
  3  4  1  0
  4  5  1  0
  5  6  2  0
  6  7  1  0
  7  8  1  0
  8  9  1  0
  8  4  1  0
  9  4  1  0
  1 10  1  0
  2 11  1  0
  2 12  1  0
  3 13  1  0
  3 14  1  0
  5 15  1  0
  6 16  1  0
  7 17  1  0
  7 18  1  0
  8 19  1  0
  9 20  1  0
  9 21  1  0
M  END
