
     RDKit          3D

 21 21  0  0  0  0  0  0  0  0999 V2000
    2.9653    1.1047   -0.1873 O   0  0  0  0  0  0  0  0  0  0  0  0
    1.8447    0.4494    0.3195 C   0  0  0  0  0  0  0  0  0  0  0  0
    0.9130    0.0224   -0.8122 C   0  0  0  0  0  0  0  0  0  0  0  0
   -0.2688   -0.6744   -0.2168 C   0  0  0  0  0  0  0  0  0  0  0  0
   -1.0840    0.1429    0.7366 C   0  0  0  0  0  0  0  0  0  0  0  0
   -1.6106    1.3572   -0.0047 C   0  0  0  0  0  0  0  0  0  0  0  0
   -2.3936    0.9335   -1.0668 O   0  0  0  0  0  0  0  0  0  0  0  0
   -0.2341   -2.1004   -0.0815 C   0  0  0  0  0  0  0  0  0  0  0  0
   -1.0665   -1.4813   -1.0602 O   0  0  0  0  0  0  0  0  0  0  0  0
    3.6904    0.4348   -0.3739 H   0  0  0  0  0  0  0  0  0  0  0  0
    1.3446    1.1817    0.9960 H   0  0  0  0  0  0  0  0  0  0  0  0
    2.1465   -0.4072    0.9279 H   0  0  0  0  0  0  0  0  0  0  0  0
    0.6331    0.9252   -1.3921 H   0  0  0  0  0  0  0  0  0  0  0  0
    1.5019   -0.6406   -1.4787 H   0  0  0  0  0  0  0  0  0  0  0  0
   -1.9211   -0.4719    1.1156 H   0  0  0  0  0  0  0  0  0  0  0  0
   -0.4564    0.4476    1.6009 H   0  0  0  0  0  0  0  0  0  0  0  0
   -2.2408    1.9945    0.6518 H   0  0  0  0  0  0  0  0  0  0  0  0
   -0.7924    1.9841   -0.4043 H   0  0  0  0  0  0  0  0  0  0  0  0
   -2.8172    0.0691   -0.9098 H   0  0  0  0  0  0  0  0  0  0  0  0
   -0.7308   -2.5856    0.7730 H   0  0  0  0  0  0  0  0  0  0  0  0
    0.5769   -2.6855   -0.5950 H   0  0  0  0  0  0  0  0  0  0  0  0
  1  2  1  0
  2  3  1  0
  3  4  1  0
  4  5  1  0
  5  6  1  0
  6  7  1  0
  4  8  1  0
  8  9  1  0
  9  4  1  0
  1 10  1  0
  2 11  1  0
  2 12  1  0
  3 13  1  0
  3 14  1  0
  5 15  1  0
  5 16  1  0
  6 17  1  0
  6 18  1  0
  7 19  1  0
  8 20  1  0
  8 21  1  0
M  END
