
     RDKit          3D

 21 21  0  0  0  0  0  0  0  0999 V2000
   -2.4577    0.5750   -0.7094 O   0  0  0  0  0  0  0  0  0  0  0  0
   -1.4818   -0.1106   -1.3760 C   0  0  0  0  0  0  0  0  0  0  0  0
   -0.4802   -0.8270   -0.5557 C   0  0  0  0  0  0  0  0  0  0  0  0
    0.3508   -0.0125    0.3560 C   0  0  0  0  0  0  0  0  0  0  0  0
    1.3640   -0.7778    1.1861 C   0  0  0  0  0  0  0  0  0  0  0  0
    2.2241   -1.4225    0.3043 O   0  0  0  0  0  0  0  0  0  0  0  0
   -0.2734    1.1535    1.0395 C   0  0  0  0  0  0  0  0  0  0  0  0
    1.0345    1.7242    1.0164 O   0  0  0  0  0  0  0  0  0  0  0  0
    1.0482    1.1918   -0.3028 C   0  0  0  0  0  0  0  0  0  0  0  0
   -2.7202    0.2115    0.1562 H   0  0  0  0  0  0  0  0  0  0  0  0
   -2.0134   -0.8822   -2.0098 H   0  0  0  0  0  0  0  0  0  0  0  0
   -1.0245    0.5716   -2.1399 H   0  0  0  0  0  0  0  0  0  0  0  0
    0.2161   -1.3413   -1.2669 H   0  0  0  0  0  0  0  0  0  0  0  0
   -1.0248   -1.6052    0.0403 H   0  0  0  0  0  0  0  0  0  0  0  0
    0.8123   -1.5933    1.7352 H   0  0  0  0  0  0  0  0  0  0  0  0
    1.8587   -0.1525    1.9258 H   0  0  0  0  0  0  0  0  0  0  0  0
    1.7147   -2.1524   -0.1443 H   0  0  0  0  0  0  0  0  0  0  0  0
   -0.6683    1.0012    2.0501 H   0  0  0  0  0  0  0  0  0  0  0  0
   -0.8564    1.7886    0.3563 H   0  0  0  0  0  0  0  0  0  0  0  0
    0.3274    1.6747   -0.9824 H   0  0  0  0  0  0  0  0  0  0  0  0
    2.0499    0.9852   -0.6789 H   0  0  0  0  0  0  0  0  0  0  0  0
  1  2  1  0
  2  3  1  0
  3  4  1  0
  4  5  1  0
  5  6  1  0
  4  7  1  0
  7  8  1  0
  8  9  1  0
  9  4  1  0
  1 10  1  0
  2 11  1  0
  2 12  1  0
  3 13  1  0
  3 14  1  0
  5 15  1  0
  5 16  1  0
  6 17  1  0
  7 18  1  0
  7 19  1  0
  9 20  1  0
  9 21  1  0
M  END
