
     RDKit          3D

 23 24  0  0  0  0  0  0  0  0999 V2000
    3.5965   -0.1323   -0.3598 O   0  0  0  0  0  0  0  0  0  0  0  0
    2.2434   -0.2135   -0.6920 C   0  0  0  0  0  0  0  0  0  0  0  0
    1.3832    0.0179    0.4964 C   0  0  0  0  0  0  0  0  0  0  0  0
   -0.0470   -0.0365    0.3003 C   0  0  0  0  0  0  0  0  0  0  0  0
   -0.9819    0.1831    1.4350 C   0  0  0  0  0  0  0  0  0  0  0  0
   -2.3242    0.1783    0.6752 C   0  0  0  0  0  0  0  0  0  0  0  0
   -1.8021   -0.1515   -0.6901 C   0  0  0  0  0  0  0  0  0  0  0  0
   -0.6792   -1.1715   -0.4489 C   0  0  0  0  0  0  0  0  0  0  0  0
   -0.6482    0.8568   -0.7948 C   0  0  0  0  0  0  0  0  0  0  0  0
    3.9324    0.7791   -0.3375 H   0  0  0  0  0  0  0  0  0  0  0  0
    2.0741    0.4716   -1.5254 H   0  0  0  0  0  0  0  0  0  0  0  0
    2.1055   -1.2530   -1.1094 H   0  0  0  0  0  0  0  0  0  0  0  0
    1.6535    1.0370    0.8992 H   0  0  0  0  0  0  0  0  0  0  0  0
    1.6794   -0.6869    1.2995 H   0  0  0  0  0  0  0  0  0  0  0  0
   -0.9582   -0.5975    2.2069 H   0  0  0  0  0  0  0  0  0  0  0  0
   -0.7933    1.1640    1.8924 H   0  0  0  0  0  0  0  0  0  0  0  0
   -2.7275    1.2125    0.6441 H   0  0  0  0  0  0  0  0  0  0  0  0
   -3.0155   -0.5585    1.0931 H   0  0  0  0  0  0  0  0  0  0  0  0
   -2.4349   -0.2816   -1.5191 H   0  0  0  0  0  0  0  0  0  0  0  0
   -1.0270   -2.0265    0.1560 H   0  0  0  0  0  0  0  0  0  0  0  0
   -0.2028   -1.4491   -1.4086 H   0  0  0  0  0  0  0  0  0  0  0  0
   -0.1177    0.7850   -1.7580 H   0  0  0  0  0  0  0  0  0  0  0  0
   -0.9085    1.8731   -0.4543 H   0  0  0  0  0  0  0  0  0  0  0  0
  1  2  1  0
  2  3  1  0
  3  4  1  0
  4  5  1  0
  5  6  1  0
  6  7  1  0
  7  8  1  0
  7  9  1  0
  8  4  1  0
  9  4  1  0
  1 10  1  0
  2 11  1  0
  2 12  1  0
  3 13  1  0
  3 14  1  0
  5 15  1  0
  5 16  1  0
  6 17  1  0
  6 18  1  0
  7 19  1  0
  8 20  1  0
  8 21  1  0
  9 22  1  0
  9 23  1  0
M  END
