
     RDKit          3D

 19 20  0  0  0  0  0  0  0  0999 V2000
    2.2936   -0.3813   -1.1573 O   0  0  0  0  0  0  0  0  0  0  0  0
    2.4657   -0.3249    0.2169 C   0  0  0  0  0  0  0  0  0  0  0  0
    1.1124   -0.5483    0.9098 C   0  0  0  0  0  0  0  0  0  0  0  0
    0.1506    0.5429    0.4625 C   0  0  0  0  0  0  0  0  0  0  0  0
   -0.0303    0.5018   -0.9545 O   0  0  0  0  0  0  0  0  0  0  0  0
   -1.0951    0.2916    0.0673 C   0  0  0  0  0  0  0  0  0  0  0  0
   -1.9326   -0.8432   -0.2980 C   0  0  0  0  0  0  0  0  0  0  0  0
   -2.6163   -0.0048   -1.2021 O   0  0  0  0  0  0  0  0  0  0  0  0
   -2.2918    1.0500   -0.3160 C   0  0  0  0  0  0  0  0  0  0  0  0
    2.7386    0.3638   -1.6378 H   0  0  0  0  0  0  0  0  0  0  0  0
    2.8505    0.7035    0.4607 H   0  0  0  0  0  0  0  0  0  0  0  0
    3.2159   -1.0276    0.5789 H   0  0  0  0  0  0  0  0  0  0  0  0
    1.2529   -0.5419    2.0096 H   0  0  0  0  0  0  0  0  0  0  0  0
    0.7791   -1.5495    0.6098 H   0  0  0  0  0  0  0  0  0  0  0  0
    0.4731    1.5477    0.8519 H   0  0  0  0  0  0  0  0  0  0  0  0
   -1.4678   -1.7329   -0.7734 H   0  0  0  0  0  0  0  0  0  0  0  0
   -2.6531   -1.1158    0.5154 H   0  0  0  0  0  0  0  0  0  0  0  0
   -3.0793    1.0431    0.4850 H   0  0  0  0  0  0  0  0  0  0  0  0
   -2.1661    2.0258   -0.8287 H   0  0  0  0  0  0  0  0  0  0  0  0
  1  2  1  0
  2  3  1  0
  3  4  1  0
  4  5  1  0
  5  6  1  0
  6  7  1  0
  7  8  1  0
  8  9  1  0
  6  4  1  0
  9  6  1  0
  1 10  1  0
  2 11  1  0
  2 12  1  0
  3 13  1  0
  3 14  1  0
  4 15  1  0
  7 16  1  0
  7 17  1  0
  9 18  1  0
  9 19  1  0
M  END
