
     RDKit          3D

 21 21  0  0  0  0  0  0  0  0999 V2000
    3.4527    0.8529    0.7690 O   0  0  0  0  0  0  0  0  0  0  0  0
    2.3047    0.0828    0.6009 C   0  0  0  0  0  0  0  0  0  0  0  0
    1.6570    0.3261   -0.7368 C   0  0  0  0  0  0  0  0  0  0  0  0
    0.4248   -0.4865   -0.9457 C   0  0  0  0  0  0  0  0  0  0  0  0
   -0.6504   -0.2091    0.0833 C   0  0  0  0  0  0  0  0  0  0  0  0
   -1.8422   -1.0726   -0.2153 C   0  0  0  0  0  0  0  0  0  0  0  0
   -2.9492   -0.3526   -0.0689 C   0  0  0  0  0  0  0  0  0  0  0  0
   -2.4938    1.0235    0.3364 C   0  0  0  0  0  0  0  0  0  0  0  0
   -1.1725    1.0701   -0.0333 O   0  0  0  0  0  0  0  0  0  0  0  0
    4.2790    0.3324    0.6330 H   0  0  0  0  0  0  0  0  0  0  0  0
    1.6133    0.2410    1.4559 H   0  0  0  0  0  0  0  0  0  0  0  0
    2.6198   -0.9907    0.6362 H   0  0  0  0  0  0  0  0  0  0  0  0
    1.4836    1.4138   -0.9038 H   0  0  0  0  0  0  0  0  0  0  0  0
    2.3954    0.0221   -1.5101 H   0  0  0  0  0  0  0  0  0  0  0  0
    0.7058   -1.5608   -0.8146 H   0  0  0  0  0  0  0  0  0  0  0  0
    0.0168   -0.3957   -1.9704 H   0  0  0  0  0  0  0  0  0  0  0  0
   -0.3002   -0.3578    1.1065 H   0  0  0  0  0  0  0  0  0  0  0  0
   -1.8062   -2.1177   -0.5045 H   0  0  0  0  0  0  0  0  0  0  0  0
   -3.9589   -0.7148   -0.2191 H   0  0  0  0  0  0  0  0  0  0  0  0
   -2.6447    1.1270    1.4218 H   0  0  0  0  0  0  0  0  0  0  0  0
   -3.1348    1.7667   -0.1862 H   0  0  0  0  0  0  0  0  0  0  0  0
  1  2  1  0
  2  3  1  0
  3  4  1  0
  4  5  1  0
  5  6  1  0
  6  7  2  0
  7  8  1  0
  8  9  1  0
  9  5  1  0
  1 10  1  0
  2 11  1  0
  2 12  1  0
  3 13  1  0
  3 14  1  0
  4 15  1  0
  4 16  1  0
  5 17  1  0
  6 18  1  0
  7 19  1  0
  8 20  1  0
  8 21  1  0
M  END
