
     RDKit          3D

 21 21  0  0  0  0  0  0  0  0999 V2000
    2.3730   -1.3399   -0.3940 O   0  0  0  0  0  0  0  0  0  0  0  0
    2.3099    0.0002   -0.6880 C   0  0  0  0  0  0  0  0  0  0  0  0
    0.9314    0.5097   -0.9760 C   0  0  0  0  0  0  0  0  0  0  0  0
   -0.0311    0.3317    0.1646 C   0  0  0  0  0  0  0  0  0  0  0  0
    0.3801    0.9972    1.3195 O   0  0  0  0  0  0  0  0  0  0  0  0
   -0.3914   -1.0452    0.4566 C   0  0  0  0  0  0  0  0  0  0  0  0
   -1.6757   -1.1710    0.6167 C   0  0  0  0  0  0  0  0  0  0  0  0
   -2.3845    0.1077    0.4568 C   0  0  0  0  0  0  0  0  0  0  0  0
   -1.3578    0.9423   -0.2818 C   0  0  0  0  0  0  0  0  0  0  0  0
    3.0103   -1.5030    0.3461 H   0  0  0  0  0  0  0  0  0  0  0  0
    2.9460    0.2560   -1.5604 H   0  0  0  0  0  0  0  0  0  0  0  0
    2.7473    0.5725    0.1799 H   0  0  0  0  0  0  0  0  0  0  0  0
    0.5183    0.0687   -1.8794 H   0  0  0  0  0  0  0  0  0  0  0  0
    1.0184    1.6068   -1.1564 H   0  0  0  0  0  0  0  0  0  0  0  0
    0.5077    0.3515    2.0798 H   0  0  0  0  0  0  0  0  0  0  0  0
    0.3066   -1.9027    0.5401 H   0  0  0  0  0  0  0  0  0  0  0  0
   -2.2278   -2.1052    0.8477 H   0  0  0  0  0  0  0  0  0  0  0  0
   -2.7184    0.5657    1.3993 H   0  0  0  0  0  0  0  0  0  0  0  0
   -3.2837   -0.0903   -0.1949 H   0  0  0  0  0  0  0  0  0  0  0  0
   -1.5111    0.8576   -1.3673 H   0  0  0  0  0  0  0  0  0  0  0  0
   -1.4677    1.9896    0.0909 H   0  0  0  0  0  0  0  0  0  0  0  0
  1  2  1  0
  2  3  1  0
  3  4  1  0
  4  5  1  0
  4  6  1  0
  6  7  2  0
  7  8  1  0
  8  9  1  0
  9  4  1  0
  1 10  1  0
  2 11  1  0
  2 12  1  0
  3 13  1  0
  3 14  1  0
  5 15  1  0
  6 16  1  0
  7 17  1  0
  8 18  1  0
  8 19  1  0
  9 20  1  0
  9 21  1  0
M  END
