
     RDKit          3D

 19 20  0  0  0  0  0  0  0  0999 V2000
    2.6843   -0.0610    0.9595 O   0  0  0  0  0  0  0  0  0  0  0  0
    2.3169   -0.1437   -0.3846 C   0  0  0  0  0  0  0  0  0  0  0  0
    1.0675    0.6281   -0.6787 C   0  0  0  0  0  0  0  0  0  0  0  0
   -0.1200    0.1689    0.0914 C   0  0  0  0  0  0  0  0  0  0  0  0
   -1.3930    0.9528   -0.2060 C   0  0  0  0  0  0  0  0  0  0  0  0
   -2.1478   -0.3524    0.0830 C   0  0  0  0  0  0  0  0  0  0  0  0
   -2.8002   -0.2401    1.2909 O   0  0  0  0  0  0  0  0  0  0  0  0
   -0.7683   -1.0094    0.1887 C   0  0  0  0  0  0  0  0  0  0  0  0
   -0.0104   -0.5324    1.2649 O   0  0  0  0  0  0  0  0  0  0  0  0
    3.6703   -0.1904    0.9903 H   0  0  0  0  0  0  0  0  0  0  0  0
    3.1415    0.3051   -0.9782 H   0  0  0  0  0  0  0  0  0  0  0  0
    2.2335   -1.2130   -0.6531 H   0  0  0  0  0  0  0  0  0  0  0  0
    0.8577    0.5218   -1.7633 H   0  0  0  0  0  0  0  0  0  0  0  0
    1.2466    1.6943   -0.4526 H   0  0  0  0  0  0  0  0  0  0  0  0
   -1.5943    1.7627    0.4965 H   0  0  0  0  0  0  0  0  0  0  0  0
   -1.4407    1.2522   -1.2631 H   0  0  0  0  0  0  0  0  0  0  0  0
   -2.7393   -0.6670   -0.7772 H   0  0  0  0  0  0  0  0  0  0  0  0
   -3.5720   -0.8401    1.3033 H   0  0  0  0  0  0  0  0  0  0  0  0
   -0.6322   -2.0362   -0.1201 H   0  0  0  0  0  0  0  0  0  0  0  0
  1  2  1  0
  2  3  1  0
  3  4  1  0
  4  5  1  0
  5  6  1  0
  6  7  1  0
  6  8  1  0
  8  9  1  0
  8  4  1  0
  9  4  1  0
  1 10  1  0
  2 11  1  0
  2 12  1  0
  3 13  1  0
  3 14  1  0
  5 15  1  0
  5 16  1  0
  6 17  1  0
  7 18  1  0
  8 19  1  0
M  END
