
     RDKit          3D

 17 19  0  0  0  0  0  0  0  0999 V2000
    1.9367   -1.3339   -0.2095 O   0  0  0  0  0  0  0  0  0  0  0  0
    2.0158   -0.1567    0.4938 C   0  0  0  0  0  0  0  0  0  0  0  0
    0.9192    0.7907    0.0120 C   0  0  0  0  0  0  0  0  0  0  0  0
   -0.4386    0.2262    0.2060 C   0  0  0  0  0  0  0  0  0  0  0  0
   -0.7721   -0.0769    1.6019 O   0  0  0  0  0  0  0  0  0  0  0  0
   -1.5700    0.6933    0.7954 C   0  0  0  0  0  0  0  0  0  0  0  0
   -2.4603   -0.1390   -0.1306 C   0  0  0  0  0  0  0  0  0  0  0  0
   -2.2641   -0.0867   -1.4835 O   0  0  0  0  0  0  0  0  0  0  0  0
   -1.1565   -0.5559   -0.8301 C   0  0  0  0  0  0  0  0  0  0  0  0
    2.5968   -1.3261   -0.9356 H   0  0  0  0  0  0  0  0  0  0  0  0
    3.0169    0.2866    0.3380 H   0  0  0  0  0  0  0  0  0  0  0  0
    1.8944   -0.2877    1.5885 H   0  0  0  0  0  0  0  0  0  0  0  0
    1.0345    1.7344    0.6126 H   0  0  0  0  0  0  0  0  0  0  0  0
    1.0998    1.0924   -1.0380 H   0  0  0  0  0  0  0  0  0  0  0  0
   -1.8540    1.7098    1.0422 H   0  0  0  0  0  0  0  0  0  0  0  0
   -3.0352   -0.9300    0.3577 H   0  0  0  0  0  0  0  0  0  0  0  0
   -0.9633   -1.6405   -0.9558 H   0  0  0  0  0  0  0  0  0  0  0  0
  1  2  1  0
  2  3  1  0
  3  4  1  0
  4  5  1  0
  5  6  1  0
  6  7  1  0
  7  8  1  0
  8  9  1  0
  6  4  1  0
  9  7  1  0
  9  4  1  0
  1 10  1  0
  2 11  1  0
  2 12  1  0
  3 13  1  0
  3 14  1  0
  6 15  1  0
  7 16  1  0
  9 17  1  0
M  END
