
     RDKit          3D

 25 25  0  0  0  0  0  0  0  0999 V2000
    3.7330   -0.2806   -0.9019 O   0  0  0  0  0  0  0  0  0  0  0  0
    3.3928    0.7948   -0.0741 C   0  0  0  0  0  0  0  0  0  0  0  0
    2.2179    0.4492    0.8105 C   0  0  0  0  0  0  0  0  0  0  0  0
    1.0087    0.1003   -0.0550 C   0  0  0  0  0  0  0  0  0  0  0  0
   -0.1628   -0.2442    0.8397 C   0  0  0  0  0  0  0  0  0  0  0  0
   -1.3208   -0.5781   -0.0591 C   0  0  0  0  0  0  0  0  0  0  0  0
   -2.6011   -0.9539    0.6480 C   0  0  0  0  0  0  0  0  0  0  0  0
   -3.3286   -0.2209   -0.4817 C   0  0  0  0  0  0  0  0  0  0  0  0
   -2.0543    0.6233   -0.6173 C   0  0  0  0  0  0  0  0  0  0  0  0
    3.7140   -1.1346   -0.4406 H   0  0  0  0  0  0  0  0  0  0  0  0
    3.1313    1.6780   -0.6834 H   0  0  0  0  0  0  0  0  0  0  0  0
    4.2461    1.0858    0.5727 H   0  0  0  0  0  0  0  0  0  0  0  0
    1.9358    1.3360    1.3895 H   0  0  0  0  0  0  0  0  0  0  0  0
    2.4993   -0.3940    1.4463 H   0  0  0  0  0  0  0  0  0  0  0  0
    1.2649   -0.8178   -0.6214 H   0  0  0  0  0  0  0  0  0  0  0  0
    0.7669    0.9489   -0.7088 H   0  0  0  0  0  0  0  0  0  0  0  0
    0.1078   -1.1061    1.4803 H   0  0  0  0  0  0  0  0  0  0  0  0
   -0.3730    0.6013    1.5188 H   0  0  0  0  0  0  0  0  0  0  0  0
   -1.0365   -1.2882   -0.8441 H   0  0  0  0  0  0  0  0  0  0  0  0
   -2.7570   -0.4479    1.6023 H   0  0  0  0  0  0  0  0  0  0  0  0
   -2.8276   -2.0268    0.7067 H   0  0  0  0  0  0  0  0  0  0  0  0
   -4.2103    0.3399   -0.1670 H   0  0  0  0  0  0  0  0  0  0  0  0
   -3.4287   -0.8351   -1.4061 H   0  0  0  0  0  0  0  0  0  0  0  0
   -1.8032    0.8902   -1.6500 H   0  0  0  0  0  0  0  0  0  0  0  0
   -2.1147    1.4807    0.0928 H   0  0  0  0  0  0  0  0  0  0  0  0
  1  2  1  0
  2  3  1  0
  3  4  1  0
  4  5  1  0
  5  6  1  0
  6  7  1  0
  7  8  1  0
  8  9  1  0
  9  6  1  0
  1 10  1  0
  2 11  1  0
  2 12  1  0
  3 13  1  0
  3 14  1  0
  4 15  1  0
  4 16  1  0
  5 17  1  0
  5 18  1  0
  6 19  1  0
  7 20  1  0
  7 21  1  0
  8 22  1  0
  8 23  1  0
  9 24  1  0
  9 25  1  0
M  END
