
     RDKit          3D

 21 22  0  0  0  0  0  0  0  0999 V2000
    2.7275    0.8196   -0.2949 O   0  0  0  0  0  0  0  0  0  0  0  0
    2.1519    0.0153    0.6737 C   0  0  0  0  0  0  0  0  0  0  0  0
    1.0866   -0.8867    0.0663 C   0  0  0  0  0  0  0  0  0  0  0  0
   -0.0175   -0.0910   -0.5787 C   0  0  0  0  0  0  0  0  0  0  0  0
   -1.0073   -1.0893   -1.1416 C   0  0  0  0  0  0  0  0  0  0  0  0
   -2.2464   -0.6330   -0.7921 O   0  0  0  0  0  0  0  0  0  0  0  0
   -2.1596    0.1135    0.3513 C   0  0  0  0  0  0  0  0  0  0  0  0
   -1.8876    1.5767    0.1443 C   0  0  0  0  0  0  0  0  0  0  0  0
   -0.7721    0.6753    0.4553 C   0  0  0  0  0  0  0  0  0  0  0  0
    3.7072    0.7083   -0.3715 H   0  0  0  0  0  0  0  0  0  0  0  0
    2.9219   -0.6933    1.0941 H   0  0  0  0  0  0  0  0  0  0  0  0
    1.7448    0.5569    1.5316 H   0  0  0  0  0  0  0  0  0  0  0  0
    1.4982   -1.6510   -0.5955 H   0  0  0  0  0  0  0  0  0  0  0  0
    0.6186   -1.4176    0.9409 H   0  0  0  0  0  0  0  0  0  0  0  0
    0.4422    0.5423   -1.3570 H   0  0  0  0  0  0  0  0  0  0  0  0
   -0.8634   -2.1105   -0.6793 H   0  0  0  0  0  0  0  0  0  0  0  0
   -0.8654   -1.2460   -2.2261 H   0  0  0  0  0  0  0  0  0  0  0  0
   -2.5658   -0.2526    1.3146 H   0  0  0  0  0  0  0  0  0  0  0  0
   -2.1949    2.2950    0.9116 H   0  0  0  0  0  0  0  0  0  0  0  0
   -2.0329    1.9811   -0.8959 H   0  0  0  0  0  0  0  0  0  0  0  0
   -0.2859    0.7870    1.4490 H   0  0  0  0  0  0  0  0  0  0  0  0
  1  2  1  0
  2  3  1  0
  3  4  1  0
  4  5  1  0
  5  6  1  0
  6  7  1  0
  7  8  1  0
  8  9  1  0
  9  4  1  0
  9  7  1  0
  1 10  1  0
  2 11  1  0
  2 12  1  0
  3 13  1  0
  3 14  1  0
  4 15  1  0
  5 16  1  0
  5 17  1  0
  7 18  1  0
  8 19  1  0
  8 20  1  0
  9 21  1  0
M  END
