
     RDKit          3D

 23 24  0  0  0  0  0  0  0  0999 V2000
   -3.6908   -0.3340    1.0659 O   0  0  0  0  0  0  0  0  0  0  0  0
   -2.4964   -0.7925    0.5144 C   0  0  0  0  0  0  0  0  0  0  0  0
   -1.5952    0.3829    0.2209 C   0  0  0  0  0  0  0  0  0  0  0  0
   -0.2866   -0.0491   -0.3776 C   0  0  0  0  0  0  0  0  0  0  0  0
    0.5659    1.1737   -0.6462 C   0  0  0  0  0  0  0  0  0  0  0  0
    1.9006    0.5416   -0.9451 C   0  0  0  0  0  0  0  0  0  0  0  0
    2.8810    0.3320    0.1308 C   0  0  0  0  0  0  0  0  0  0  0  0
    1.9317   -0.7594   -0.1137 C   0  0  0  0  0  0  0  0  0  0  0  0
    0.5895   -0.7920    0.5998 C   0  0  0  0  0  0  0  0  0  0  0  0
   -3.9333    0.5370    0.6240 H   0  0  0  0  0  0  0  0  0  0  0  0
   -2.0239   -1.4314    1.3162 H   0  0  0  0  0  0  0  0  0  0  0  0
   -2.6914   -1.4134   -0.3687 H   0  0  0  0  0  0  0  0  0  0  0  0
   -1.4910    0.9963    1.1168 H   0  0  0  0  0  0  0  0  0  0  0  0
   -2.1121    1.0049   -0.5422 H   0  0  0  0  0  0  0  0  0  0  0  0
   -0.4119   -0.6177   -1.2952 H   0  0  0  0  0  0  0  0  0  0  0  0
    0.1295    1.7108   -1.4944 H   0  0  0  0  0  0  0  0  0  0  0  0
    0.6289    1.8080    0.2753 H   0  0  0  0  0  0  0  0  0  0  0  0
    2.1978    0.4002   -2.0061 H   0  0  0  0  0  0  0  0  0  0  0  0
    3.9239    0.1612   -0.1884 H   0  0  0  0  0  0  0  0  0  0  0  0
    2.7747    0.8770    1.0879 H   0  0  0  0  0  0  0  0  0  0  0  0
    2.2204   -1.6885   -0.6567 H   0  0  0  0  0  0  0  0  0  0  0  0
    0.2670   -1.8238    0.7745 H   0  0  0  0  0  0  0  0  0  0  0  0
    0.7219   -0.2240    1.5375 H   0  0  0  0  0  0  0  0  0  0  0  0
  1  2  1  0
  2  3  1  0
  3  4  1  0
  4  5  1  0
  5  6  1  0
  6  7  1  0
  7  8  1  0
  8  9  1  0
  9  4  1  0
  8  6  1  0
  1 10  1  0
  2 11  1  0
  2 12  1  0
  3 13  1  0
  3 14  1  0
  4 15  1  0
  5 16  1  0
  5 17  1  0
  6 18  1  0
  7 19  1  0
  7 20  1  0
  8 21  1  0
  9 22  1  0
  9 23  1  0
M  END
