
     RDKit          3D

 21 21  0  0  0  0  0  0  0  0999 V2000
    3.2617    1.2722   -0.1289 O   0  0  0  0  0  0  0  0  0  0  0  0
    1.8744    1.2177    0.1544 C   0  0  0  0  0  0  0  0  0  0  0  0
    1.5479   -0.2304    0.3161 C   0  0  0  0  0  0  0  0  0  0  0  0
    0.1172   -0.5149    0.6234 C   0  0  0  0  0  0  0  0  0  0  0  0
   -0.1096   -1.8838    0.7597 O   0  0  0  0  0  0  0  0  0  0  0  0
   -1.3917   -1.6667    0.2992 C   0  0  0  0  0  0  0  0  0  0  0  0
   -0.8633   -0.4848   -0.4880 C   0  0  0  0  0  0  0  0  0  0  0  0
   -1.8805    0.6419   -0.4476 C   0  0  0  0  0  0  0  0  0  0  0  0
   -2.6161    0.5262    0.7399 O   0  0  0  0  0  0  0  0  0  0  0  0
    3.7226    0.4603    0.1458 H   0  0  0  0  0  0  0  0  0  0  0  0
    1.3697    1.6596   -0.7373 H   0  0  0  0  0  0  0  0  0  0  0  0
    1.7457    1.8140    1.0696 H   0  0  0  0  0  0  0  0  0  0  0  0
    1.8867   -0.7757   -0.5766 H   0  0  0  0  0  0  0  0  0  0  0  0
    2.1534   -0.6075    1.1866 H   0  0  0  0  0  0  0  0  0  0  0  0
   -0.2713    0.0169    1.5136 H   0  0  0  0  0  0  0  0  0  0  0  0
   -2.0376   -1.3196    1.1470 H   0  0  0  0  0  0  0  0  0  0  0  0
   -1.8305   -2.4563   -0.3333 H   0  0  0  0  0  0  0  0  0  0  0  0
   -0.5171   -0.7706   -1.4948 H   0  0  0  0  0  0  0  0  0  0  0  0
   -2.5943    0.4911   -1.2849 H   0  0  0  0  0  0  0  0  0  0  0  0
   -1.4103    1.6395   -0.5111 H   0  0  0  0  0  0  0  0  0  0  0  0
   -2.1571    0.9710    1.4709 H   0  0  0  0  0  0  0  0  0  0  0  0
  1  2  1  0
  2  3  1  0
  3  4  1  0
  4  5  1  0
  5  6  1  0
  6  7  1  0
  7  8  1  0
  8  9  1  0
  7  4  1  0
  1 10  1  0
  2 11  1  0
  2 12  1  0
  3 13  1  0
  3 14  1  0
  4 15  1  0
  6 16  1  0
  6 17  1  0
  7 18  1  0
  8 19  1  0
  8 20  1  0
  9 21  1  0
M  END
