
     RDKit          3D

 21 22  0  0  0  0  0  0  0  0999 V2000
    2.0405    0.2345    1.3144 O   0  0  0  0  0  0  0  0  0  0  0  0
    2.5358    0.0612    0.0504 C   0  0  0  0  0  0  0  0  0  0  0  0
    1.5931   -0.6692   -0.8247 C   0  0  0  0  0  0  0  0  0  0  0  0
    0.2662   -0.0519   -1.0616 C   0  0  0  0  0  0  0  0  0  0  0  0
   -0.6071    0.1807    0.1115 C   0  0  0  0  0  0  0  0  0  0  0  0
   -1.8986    0.8053   -0.3321 C   0  0  0  0  0  0  0  0  0  0  0  0
   -2.5416    0.2625    0.8767 C   0  0  0  0  0  0  0  0  0  0  0  0
   -1.7094   -0.8258    0.2985 C   0  0  0  0  0  0  0  0  0  0  0  0
   -2.1635   -0.4292   -0.9498 O   0  0  0  0  0  0  0  0  0  0  0  0
    2.4222    1.0533    1.7151 H   0  0  0  0  0  0  0  0  0  0  0  0
    2.7712    1.0769   -0.3528 H   0  0  0  0  0  0  0  0  0  0  0  0
    3.4660   -0.5539    0.1245 H   0  0  0  0  0  0  0  0  0  0  0  0
    2.0869   -0.7525   -1.8411 H   0  0  0  0  0  0  0  0  0  0  0  0
    1.4308   -1.7289   -0.5338 H   0  0  0  0  0  0  0  0  0  0  0  0
    0.3159    0.8880   -1.6701 H   0  0  0  0  0  0  0  0  0  0  0  0
   -0.2945   -0.7728   -1.7334 H   0  0  0  0  0  0  0  0  0  0  0  0
   -0.2012    0.5205    1.0580 H   0  0  0  0  0  0  0  0  0  0  0  0
   -2.0094    1.7027   -0.7749 H   0  0  0  0  0  0  0  0  0  0  0  0
   -3.6404    0.1090    0.7397 H   0  0  0  0  0  0  0  0  0  0  0  0
   -2.2607    0.6614    1.8513 H   0  0  0  0  0  0  0  0  0  0  0  0
   -1.6022   -1.7720    0.6299 H   0  0  0  0  0  0  0  0  0  0  0  0
  1  2  1  0
  2  3  1  0
  3  4  1  0
  4  5  1  0
  5  6  1  0
  6  7  1  0
  7  8  1  0
  8  9  1  0
  8  5  1  0
  9  6  1  0
  1 10  1  0
  2 11  1  0
  2 12  1  0
  3 13  1  0
  3 14  1  0
  4 15  1  0
  4 16  1  0
  5 17  1  0
  6 18  1  0
  7 19  1  0
  7 20  1  0
  8 21  1  0
M  END
