
     RDKit          3D

 20 21  0  0  0  0  0  0  0  0999 V2000
    3.2412    0.6079   -0.4722 O   0  0  0  0  0  0  0  0  0  0  0  0
    1.9044    0.9511   -0.2062 C   0  0  0  0  0  0  0  0  0  0  0  0
    1.1577   -0.3333    0.0047 C   0  0  0  0  0  0  0  0  0  0  0  0
   -0.2787   -0.1445    0.2981 C   0  0  0  0  0  0  0  0  0  0  0  0
   -1.1033   -1.3715    0.5228 C   0  0  0  0  0  0  0  0  0  0  0  0
   -2.1762   -0.7829   -0.3422 C   0  0  0  0  0  0  0  0  0  0  0  0
   -1.2636    0.4074   -0.6232 C   0  0  0  0  0  0  0  0  0  0  0  0
   -0.8777    1.1839    0.5720 C   0  0  0  0  0  0  0  0  0  0  0  0
    3.4413   -0.3249   -0.1513 H   0  0  0  0  0  0  0  0  0  0  0  0
    1.8748    1.5652    0.7155 H   0  0  0  0  0  0  0  0  0  0  0  0
    1.5190    1.5065   -1.0846 H   0  0  0  0  0  0  0  0  0  0  0  0
    1.6369   -0.8422    0.8839 H   0  0  0  0  0  0  0  0  0  0  0  0
    1.3704   -0.9929   -0.8653 H   0  0  0  0  0  0  0  0  0  0  0  0
   -0.6297   -2.2787    0.1242 H   0  0  0  0  0  0  0  0  0  0  0  0
   -1.3786   -1.4314    1.6170 H   0  0  0  0  0  0  0  0  0  0  0  0
   -2.4014   -1.3045   -1.2737 H   0  0  0  0  0  0  0  0  0  0  0  0
   -3.0773   -0.4093    0.2168 H   0  0  0  0  0  0  0  0  0  0  0  0
   -1.0808    0.7254   -1.6454 H   0  0  0  0  0  0  0  0  0  0  0  0
   -1.6261    1.1937    1.3991 H   0  0  0  0  0  0  0  0  0  0  0  0
   -0.2522    2.0749    0.3972 H   0  0  0  0  0  0  0  0  0  0  0  0
  1  2  1  0
  2  3  1  0
  3  4  1  0
  4  5  1  0
  5  6  1  0
  6  7  1  0
  7  8  1  0
  7  4  1  0
  8  4  1  0
  1  9  1  0
  2 10  1  0
  2 11  1  0
  3 12  1  0
  3 13  1  0
  5 14  1  0
  5 15  1  0
  6 16  1  0
  6 17  1  0
  7 18  1  0
  8 19  1  0
  8 20  1  0
M  END
