
     RDKit          3D

 21 22  0  0  0  0  0  0  0  0999 V2000
    3.3744   -0.3359   -0.6567 O   0  0  0  0  0  0  0  0  0  0  0  0
    2.0943    0.1978   -0.6949 C   0  0  0  0  0  0  0  0  0  0  0  0
    1.1941   -0.7140    0.1319 C   0  0  0  0  0  0  0  0  0  0  0  0
   -0.1006   -0.2743    0.1596 C   0  0  0  0  0  0  0  0  0  0  0  0
   -1.0001   -0.0880   -1.0476 C   0  0  0  0  0  0  0  0  0  0  0  0
   -1.8815    0.2496    0.1162 C   0  0  0  0  0  0  0  0  0  0  0  0
   -3.0631    0.6518    0.1287 O   0  0  0  0  0  0  0  0  0  0  0  0
   -0.6624    0.9962    0.6609 C   0  0  0  0  0  0  0  0  0  0  0  0
   -1.2879   -0.9604    0.7886 C   0  0  0  0  0  0  0  0  0  0  0  0
    3.8750    0.0165    0.1222 H   0  0  0  0  0  0  0  0  0  0  0  0
    1.7146    0.2023   -1.7376 H   0  0  0  0  0  0  0  0  0  0  0  0
    2.0680    1.2234   -0.2780 H   0  0  0  0  0  0  0  0  0  0  0  0
    1.3015   -1.7270   -0.3405 H   0  0  0  0  0  0  0  0  0  0  0  0
    1.6641   -0.8023    1.1231 H   0  0  0  0  0  0  0  0  0  0  0  0
   -1.3004   -1.0182   -1.5617 H   0  0  0  0  0  0  0  0  0  0  0  0
   -0.6919    0.7486   -1.6962 H   0  0  0  0  0  0  0  0  0  0  0  0
   -3.2806    1.3625    0.7745 H   0  0  0  0  0  0  0  0  0  0  0  0
   -0.4407    1.9173    0.0963 H   0  0  0  0  0  0  0  0  0  0  0  0
   -0.6887    1.1848    1.7356 H   0  0  0  0  0  0  0  0  0  0  0  0
   -1.2690   -0.9453    1.8826 H   0  0  0  0  0  0  0  0  0  0  0  0
   -1.6190   -1.8853    0.2930 H   0  0  0  0  0  0  0  0  0  0  0  0
  1  2  1  0
  2  3  1  0
  3  4  1  0
  4  5  1  0
  5  6  1  0
  6  7  1  0
  6  8  1  0
  6  9  1  0
  8  4  1  0
  9  4  1  0
  1 10  1  0
  2 11  1  0
  2 12  1  0
  3 13  1  0
  3 14  1  0
  5 15  1  0
  5 16  1  0
  7 17  1  0
  8 18  1  0
  8 19  1  0
  9 20  1  0
  9 21  1  0
M  END
