
     RDKit          3D

 18 18  0  0  0  0  0  0  0  0999 V2000
    3.0136    0.1227    0.3226 O   0  0  0  0  0  0  0  0  0  0  0  0
    1.6803   -0.1722    0.6546 C   0  0  0  0  0  0  0  0  0  0  0  0
    0.8249    0.5984   -0.3439 C   0  0  0  0  0  0  0  0  0  0  0  0
   -0.6533    0.3692   -0.0993 C   0  0  0  0  0  0  0  0  0  0  0  0
   -1.1713   -1.0431   -0.1909 C   0  0  0  0  0  0  0  0  0  0  0  0
   -1.0965   -1.6973    1.0354 O   0  0  0  0  0  0  0  0  0  0  0  0
   -1.5485    1.5078   -0.5468 C   0  0  0  0  0  0  0  0  0  0  0  0
   -1.3286    1.1784    0.7917 O   0  0  0  0  0  0  0  0  0  0  0  0
    3.4111   -0.6300   -0.2033 H   0  0  0  0  0  0  0  0  0  0  0  0
    1.5121    0.2304    1.6634 H   0  0  0  0  0  0  0  0  0  0  0  0
    1.4993   -1.2605    0.6031 H   0  0  0  0  0  0  0  0  0  0  0  0
    1.0864    0.3185   -1.3821 H   0  0  0  0  0  0  0  0  0  0  0  0
    1.0758    1.6697   -0.2120 H   0  0  0  0  0  0  0  0  0  0  0  0
   -2.2403   -1.0155   -0.5275 H   0  0  0  0  0  0  0  0  0  0  0  0
   -0.5483   -1.6582   -0.8983 H   0  0  0  0  0  0  0  0  0  0  0  0
   -1.9426   -2.1376    1.2199 H   0  0  0  0  0  0  0  0  0  0  0  0
   -1.0807    2.4506   -0.8530 H   0  0  0  0  0  0  0  0  0  0  0  0
   -2.4934    1.1688   -1.0337 H   0  0  0  0  0  0  0  0  0  0  0  0
  1  2  1  0
  2  3  1  0
  3  4  1  0
  4  5  1  0
  5  6  1  0
  4  7  1  0
  7  8  1  0
  8  4  1  0
  1  9  1  0
  2 10  1  0
  2 11  1  0
  3 12  1  0
  3 13  1  0
  5 14  1  0
  5 15  1  0
  6 16  1  0
  7 17  1  0
  7 18  1  0
M  END
