
     RDKit          3D

 19 20  0  0  0  0  0  0  0  0999 V2000
    2.2303   -0.4987    0.8631 O   0  0  0  0  0  0  0  0  0  0  0  0
    2.2129   -0.2289   -0.5056 C   0  0  0  0  0  0  0  0  0  0  0  0
    0.7841   -0.4987   -0.9686 C   0  0  0  0  0  0  0  0  0  0  0  0
   -0.1130    0.4502   -0.1714 C   0  0  0  0  0  0  0  0  0  0  0  0
   -1.5836    0.2982   -0.5257 C   0  0  0  0  0  0  0  0  0  0  0  0
   -2.1993    1.5485   -0.4663 O   0  0  0  0  0  0  0  0  0  0  0  0
   -1.7727   -0.5671    0.6721 C   0  0  0  0  0  0  0  0  0  0  0  0
   -0.8499   -1.4918    1.0720 O   0  0  0  0  0  0  0  0  0  0  0  0
   -0.4396   -0.1854    1.1550 C   0  0  0  0  0  0  0  0  0  0  0  0
    2.4006    0.3575    1.3430 H   0  0  0  0  0  0  0  0  0  0  0  0
    2.9267   -0.8951   -1.0530 H   0  0  0  0  0  0  0  0  0  0  0  0
    2.5068    0.8022   -0.7056 H   0  0  0  0  0  0  0  0  0  0  0  0
    0.5713   -1.5433   -0.7280 H   0  0  0  0  0  0  0  0  0  0  0  0
    0.7472   -0.2882   -2.0507 H   0  0  0  0  0  0  0  0  0  0  0  0
    0.2601    1.4751   -0.1059 H   0  0  0  0  0  0  0  0  0  0  0  0
   -1.7855   -0.1897   -1.4819 H   0  0  0  0  0  0  0  0  0  0  0  0
   -2.8374    1.6061    0.2914 H   0  0  0  0  0  0  0  0  0  0  0  0
   -2.6872   -0.5163    1.2829 H   0  0  0  0  0  0  0  0  0  0  0  0
   -0.3718    0.3655    2.0834 H   0  0  0  0  0  0  0  0  0  0  0  0
  1  2  1  0
  2  3  1  0
  3  4  1  0
  4  5  1  0
  5  6  1  0
  5  7  1  0
  7  8  1  0
  8  9  1  0
  9  4  1  0
  9  7  1  0
  1 10  1  0
  2 11  1  0
  2 12  1  0
  3 13  1  0
  3 14  1  0
  4 15  1  0
  5 16  1  0
  6 17  1  0
  7 18  1  0
  9 19  1  0
M  END
