
     RDKit          3D

 21 22  0  0  0  0  0  0  0  0999 V2000
    2.6324   -0.7558   -0.4658 O   0  0  0  0  0  0  0  0  0  0  0  0
    2.1619    0.0689    0.5535 C   0  0  0  0  0  0  0  0  0  0  0  0
    0.9287    0.8598    0.1331 C   0  0  0  0  0  0  0  0  0  0  0  0
   -0.1669   -0.0268   -0.2719 C   0  0  0  0  0  0  0  0  0  0  0  0
   -1.3663    0.7745   -0.6973 C   0  0  0  0  0  0  0  0  0  0  0  0
   -1.6310    0.7984    0.7964 C   0  0  0  0  0  0  0  0  0  0  0  0
   -1.2570   -0.6199    0.6521 C   0  0  0  0  0  0  0  0  0  0  0  0
   -2.3740   -1.2462   -0.0022 O   0  0  0  0  0  0  0  0  0  0  0  0
   -0.0819   -1.3252    0.3135 C   0  0  0  0  0  0  0  0  0  0  0  0
    2.9223   -0.2333   -1.2679 H   0  0  0  0  0  0  0  0  0  0  0  0
    3.0264    0.7924    0.7143 H   0  0  0  0  0  0  0  0  0  0  0  0
    2.0540   -0.5105    1.4588 H   0  0  0  0  0  0  0  0  0  0  0  0
    0.7488    1.5604    0.9763 H   0  0  0  0  0  0  0  0  0  0  0  0
    1.3178    1.5205   -0.6819 H   0  0  0  0  0  0  0  0  0  0  0  0
   -1.1188    1.7062   -1.1848 H   0  0  0  0  0  0  0  0  0  0  0  0
   -2.1488    0.2230   -1.2430 H   0  0  0  0  0  0  0  0  0  0  0  0
   -1.0857    1.4769    1.4226 H   0  0  0  0  0  0  0  0  0  0  0  0
   -2.7227    0.9740    0.9722 H   0  0  0  0  0  0  0  0  0  0  0  0
   -2.3287   -2.2080    0.0715 H   0  0  0  0  0  0  0  0  0  0  0  0
    0.5207   -1.6643    1.1832 H   0  0  0  0  0  0  0  0  0  0  0  0
   -0.0315   -2.1649   -0.4549 H   0  0  0  0  0  0  0  0  0  0  0  0
  1  2  1  0
  2  3  1  0
  3  4  1  0
  4  5  1  0
  5  6  1  0
  6  7  1  0
  7  8  1  0
  7  9  1  0
  7  4  1  0
  9  4  1  0
  1 10  1  0
  2 11  1  0
  2 12  1  0
  3 13  1  0
  3 14  1  0
  5 15  1  0
  5 16  1  0
  6 17  1  0
  6 18  1  0
  8 19  1  0
  9 20  1  0
  9 21  1  0
M  END
