
     RDKit          3D

 23 24  0  0  0  0  0  0  0  0999 V2000
    1.5562    1.2997    0.2883 O   0  0  0  0  0  0  0  0  0  0  0  0
    2.4946    0.2885    0.4317 C   0  0  0  0  0  0  0  0  0  0  0  0
    2.1570   -0.8082   -0.5459 C   0  0  0  0  0  0  0  0  0  0  0  0
    0.7737   -1.3210   -0.2267 C   0  0  0  0  0  0  0  0  0  0  0  0
   -0.2643   -0.2497   -0.3310 C   0  0  0  0  0  0  0  0  0  0  0  0
   -1.6611   -0.6924   -0.0286 C   0  0  0  0  0  0  0  0  0  0  0  0
   -2.7370    0.3077   -0.2805 C   0  0  0  0  0  0  0  0  0  0  0  0
   -2.0346    1.2478    0.7058 C   0  0  0  0  0  0  0  0  0  0  0  0
   -0.9196    0.2664    0.9101 C   0  0  0  0  0  0  0  0  0  0  0  0
    1.7579    2.0836    0.8762 H   0  0  0  0  0  0  0  0  0  0  0  0
    2.4803   -0.0972    1.4794 H   0  0  0  0  0  0  0  0  0  0  0  0
    3.5274    0.6338    0.2243 H   0  0  0  0  0  0  0  0  0  0  0  0
    2.8841   -1.6449   -0.5075 H   0  0  0  0  0  0  0  0  0  0  0  0
    2.2233   -0.3950   -1.5723 H   0  0  0  0  0  0  0  0  0  0  0  0
    0.7565   -1.8244    0.7562 H   0  0  0  0  0  0  0  0  0  0  0  0
    0.4960   -2.1281   -0.9675 H   0  0  0  0  0  0  0  0  0  0  0  0
   -0.1427    0.4706   -1.1604 H   0  0  0  0  0  0  0  0  0  0  0  0
   -1.8728   -1.6884    0.3865 H   0  0  0  0  0  0  0  0  0  0  0  0
   -2.6995    0.6812   -1.3286 H   0  0  0  0  0  0  0  0  0  0  0  0
   -3.7571    0.0188    0.0294 H   0  0  0  0  0  0  0  0  0  0  0  0
   -1.7026    2.2117    0.2215 H   0  0  0  0  0  0  0  0  0  0  0  0
   -2.6829    1.4142    1.5884 H   0  0  0  0  0  0  0  0  0  0  0  0
   -0.6328   -0.0747    1.9048 H   0  0  0  0  0  0  0  0  0  0  0  0
  1  2  1  0
  2  3  1  0
  3  4  1  0
  4  5  1  0
  5  6  1  0
  6  7  1  0
  7  8  1  0
  8  9  1  0
  9  5  1  0
  9  6  1  0
  1 10  1  0
  2 11  1  0
  2 12  1  0
  3 13  1  0
  3 14  1  0
  4 15  1  0
  4 16  1  0
  5 17  1  0
  6 18  1  0
  7 19  1  0
  7 20  1  0
  8 21  1  0
  8 22  1  0
  9 23  1  0
M  END
