
     RDKit          3D

 21 21  0  0  0  0  0  0  0  0999 V2000
    2.9264    0.2348    0.9815 O   0  0  0  0  0  0  0  0  0  0  0  0
    2.4475   -0.8158    0.2023 C   0  0  0  0  0  0  0  0  0  0  0  0
    1.3921   -0.3316   -0.7676 C   0  0  0  0  0  0  0  0  0  0  0  0
    0.2158    0.2768   -0.0378 C   0  0  0  0  0  0  0  0  0  0  0  0
   -0.4286   -0.7244    0.8777 C   0  0  0  0  0  0  0  0  0  0  0  0
   -1.7389   -0.5167    0.8692 C   0  0  0  0  0  0  0  0  0  0  0  0
   -2.0914    0.6143   -0.0293 C   0  0  0  0  0  0  0  0  0  0  0  0
   -3.2983    0.4626   -0.6580 O   0  0  0  0  0  0  0  0  0  0  0  0
   -0.9132    0.5501   -1.0105 C   0  0  0  0  0  0  0  0  0  0  0  0
    2.5542    1.1132    0.6660 H   0  0  0  0  0  0  0  0  0  0  0  0
    3.3050   -1.1807   -0.4215 H   0  0  0  0  0  0  0  0  0  0  0  0
    2.0678   -1.6599    0.8225 H   0  0  0  0  0  0  0  0  0  0  0  0
    1.0687   -1.1135   -1.4508 H   0  0  0  0  0  0  0  0  0  0  0  0
    1.8472    0.4865   -1.3658 H   0  0  0  0  0  0  0  0  0  0  0  0
    0.4756    1.1605    0.5411 H   0  0  0  0  0  0  0  0  0  0  0  0
    0.0697   -1.5021    1.4633 H   0  0  0  0  0  0  0  0  0  0  0  0
   -2.4389   -1.1028    1.4457 H   0  0  0  0  0  0  0  0  0  0  0  0
   -2.0032    1.5953    0.5226 H   0  0  0  0  0  0  0  0  0  0  0  0
   -3.5914    1.3442   -0.9855 H   0  0  0  0  0  0  0  0  0  0  0  0
   -0.7904    1.4691   -1.5771 H   0  0  0  0  0  0  0  0  0  0  0  0
   -1.0757   -0.3600   -1.6291 H   0  0  0  0  0  0  0  0  0  0  0  0
  1  2  1  0
  2  3  1  0
  3  4  1  0
  4  5  1  0
  5  6  2  0
  6  7  1  0
  7  8  1  0
  7  9  1  0
  9  4  1  0
  1 10  1  0
  2 11  1  0
  2 12  1  0
  3 13  1  0
  3 14  1  0
  4 15  1  0
  5 16  1  0
  6 17  1  0
  7 18  1  0
  8 19  1  0
  9 20  1  0
  9 21  1  0
M  END
