
     RDKit          3D

 23 23  0  0  0  0  0  0  0  0999 V2000
   -3.5499   -0.8207   -0.0959 O   0  0  0  0  0  0  0  0  0  0  0  0
   -3.1602    0.4362   -0.5804 C   0  0  0  0  0  0  0  0  0  0  0  0
   -1.8185    0.7857    0.0200 C   0  0  0  0  0  0  0  0  0  0  0  0
   -0.7473   -0.1920   -0.3189 C   0  0  0  0  0  0  0  0  0  0  0  0
    0.5362    0.2701    0.3387 C   0  0  0  0  0  0  0  0  0  0  0  0
    1.6687   -0.6822    0.0333 C   0  0  0  0  0  0  0  0  0  0  0  0
    2.9936   -0.3121    0.6425 C   0  0  0  0  0  0  0  0  0  0  0  0
    3.5995   -0.8479   -0.5198 O   0  0  0  0  0  0  0  0  0  0  0  0
    2.4644   -0.3563   -1.2056 C   0  0  0  0  0  0  0  0  0  0  0  0
   -3.5939   -0.7779    0.8901 H   0  0  0  0  0  0  0  0  0  0  0  0
   -3.1473    0.3962   -1.6685 H   0  0  0  0  0  0  0  0  0  0  0  0
   -3.9140    1.1533   -0.2052 H   0  0  0  0  0  0  0  0  0  0  0  0
   -1.4984    1.7872   -0.3541 H   0  0  0  0  0  0  0  0  0  0  0  0
   -1.9037    0.8866    1.1176 H   0  0  0  0  0  0  0  0  0  0  0  0
   -1.0243   -1.2247    0.0179 H   0  0  0  0  0  0  0  0  0  0  0  0
   -0.5924   -0.2686   -1.4108 H   0  0  0  0  0  0  0  0  0  0  0  0
    0.7335    1.2940   -0.0665 H   0  0  0  0  0  0  0  0  0  0  0  0
    0.3489    0.3658    1.4296 H   0  0  0  0  0  0  0  0  0  0  0  0
    1.3887   -1.7219    0.1853 H   0  0  0  0  0  0  0  0  0  0  0  0
    3.2661   -0.8152    1.5742 H   0  0  0  0  0  0  0  0  0  0  0  0
    3.1699    0.7944    0.6141 H   0  0  0  0  0  0  0  0  0  0  0  0
    2.2008   -0.8997   -2.1109 H   0  0  0  0  0  0  0  0  0  0  0  0
    2.5797    0.7498   -1.2935 H   0  0  0  0  0  0  0  0  0  0  0  0
  1  2  1  0
  2  3  1  0
  3  4  1  0
  4  5  1  0
  5  6  1  0
  6  7  1  0
  7  8  1  0
  8  9  1  0
  9  6  1  0
  1 10  1  0
  2 11  1  0
  2 12  1  0
  3 13  1  0
  3 14  1  0
  4 15  1  0
  4 16  1  0
  5 17  1  0
  5 18  1  0
  6 19  1  0
  7 20  1  0
  7 21  1  0
  9 22  1  0
  9 23  1  0
M  END
