
     RDKit          3D

 21 21  0  0  0  0  0  0  0  0999 V2000
   -3.1218    0.9472   -0.3796 O   0  0  0  0  0  0  0  0  0  0  0  0
   -2.5914   -0.3208   -0.4269 C   0  0  0  0  0  0  0  0  0  0  0  0
   -1.4343   -0.5108    0.5277 C   0  0  0  0  0  0  0  0  0  0  0  0
   -0.2944    0.4278    0.2434 C   0  0  0  0  0  0  0  0  0  0  0  0
    0.3815    0.3956   -1.0678 C   0  0  0  0  0  0  0  0  0  0  0  0
    1.0538   -0.1418    0.1686 C   0  0  0  0  0  0  0  0  0  0  0  0
    1.2135   -1.5339    0.2950 O   0  0  0  0  0  0  0  0  0  0  0  0
    2.2767    0.6238    0.6187 C   0  0  0  0  0  0  0  0  0  0  0  0
    3.3515    0.2214   -0.1746 O   0  0  0  0  0  0  0  0  0  0  0  0
   -2.5724    1.5675    0.1685 H   0  0  0  0  0  0  0  0  0  0  0  0
   -3.3669   -1.0898   -0.2364 H   0  0  0  0  0  0  0  0  0  0  0  0
   -2.2346   -0.5133   -1.4752 H   0  0  0  0  0  0  0  0  0  0  0  0
   -1.7882   -0.3380    1.5629 H   0  0  0  0  0  0  0  0  0  0  0  0
   -1.0666   -1.5391    0.4605 H   0  0  0  0  0  0  0  0  0  0  0  0
   -0.4658    1.4497    0.6936 H   0  0  0  0  0  0  0  0  0  0  0  0
    0.7174    1.3566   -1.4905 H   0  0  0  0  0  0  0  0  0  0  0  0
    0.1756   -0.3735   -1.8317 H   0  0  0  0  0  0  0  0  0  0  0  0
    1.4240   -1.9628   -0.5735 H   0  0  0  0  0  0  0  0  0  0  0  0
    2.1291    1.7143    0.6256 H   0  0  0  0  0  0  0  0  0  0  0  0
    2.5099    0.2562    1.6588 H   0  0  0  0  0  0  0  0  0  0  0  0
    3.7034   -0.6363    0.1811 H   0  0  0  0  0  0  0  0  0  0  0  0
  1  2  1  0
  2  3  1  0
  3  4  1  0
  4  5  1  0
  5  6  1  0
  6  7  1  0
  6  8  1  0
  8  9  1  0
  6  4  1  0
  1 10  1  0
  2 11  1  0
  2 12  1  0
  3 13  1  0
  3 14  1  0
  4 15  1  0
  5 16  1  0
  5 17  1  0
  7 18  1  0
  8 19  1  0
  8 20  1  0
  9 21  1  0
M  END
