
     RDKit          3D

 20 19  0  0  0  0  0  0  0  0999 V2000
   -2.3158   -0.4376    1.5598 O   0  0  0  0  0  0  0  0  0  0  0  0
   -2.2586    0.5468    0.5629 C   0  0  0  0  0  0  0  0  0  0  0  0
   -0.8057    0.7519    0.1107 C   0  0  0  0  0  0  0  0  0  0  0  0
   -0.2595   -0.5235   -0.4347 C   0  0  0  0  0  0  0  0  0  0  0  0
    1.1532   -0.4452   -0.9115 C   0  0  0  0  0  0  0  0  0  0  0  0
    1.3501    0.4686   -1.9217 O   0  0  0  0  0  0  0  0  0  0  0  0
    2.1278   -0.2798    0.2278 C   0  0  0  0  0  0  0  0  0  0  0  0
    2.0740    0.9604    0.8356 O   0  0  0  0  0  0  0  0  0  0  0  0
   -3.1818   -0.8800    1.5997 H   0  0  0  0  0  0  0  0  0  0  0  0
   -2.6299    1.5004    0.9399 H   0  0  0  0  0  0  0  0  0  0  0  0
   -2.8594    0.2598   -0.3205 H   0  0  0  0  0  0  0  0  0  0  0  0
   -0.8583    1.5055   -0.6978 H   0  0  0  0  0  0  0  0  0  0  0  0
   -0.2350    1.1722    0.9636 H   0  0  0  0  0  0  0  0  0  0  0  0
   -0.3473   -1.3556    0.3199 H   0  0  0  0  0  0  0  0  0  0  0  0
   -0.9360   -0.8406   -1.2646 H   0  0  0  0  0  0  0  0  0  0  0  0
    1.4066   -1.4495   -1.3741 H   0  0  0  0  0  0  0  0  0  0  0  0
    0.5206    0.6945   -2.4189 H   0  0  0  0  0  0  0  0  0  0  0  0
    1.9294   -1.0570    1.0095 H   0  0  0  0  0  0  0  0  0  0  0  0
    3.1784   -0.4524   -0.0925 H   0  0  0  0  0  0  0  0  0  0  0  0
    2.9472    1.0942    1.3068 H   0  0  0  0  0  0  0  0  0  0  0  0
  1  2  1  0
  2  3  1  0
  3  4  1  0
  4  5  1  0
  5  6  1  0
  5  7  1  0
  7  8  1  0
  1  9  1  0
  2 10  1  0
  2 11  1  0
  3 12  1  0
  3 13  1  0
  4 14  1  0
  4 15  1  0
  5 16  1  0
  6 17  1  0
  7 18  1  0
  7 19  1  0
  8 20  1  0
M  END
