
     RDKit          3D

 23 22  0  0  0  0  0  0  0  0999 V2000
   -3.8863    0.2821    1.1340 O   0  0  0  0  0  0  0  0  0  0  0  0
   -2.7865   -0.4440    0.7084 C   0  0  0  0  0  0  0  0  0  0  0  0
   -1.8277    0.4879   -0.0088 C   0  0  0  0  0  0  0  0  0  0  0  0
   -0.6252   -0.3273   -0.4694 C   0  0  0  0  0  0  0  0  0  0  0  0
    0.3086    0.6399   -1.1812 C   0  0  0  0  0  0  0  0  0  0  0  0
    1.4069   -0.0524   -1.6147 O   0  0  0  0  0  0  0  0  0  0  0  0
    2.1441   -0.6667   -0.6388 C   0  0  0  0  0  0  0  0  0  0  0  0
    2.6887    0.3118    0.3777 C   0  0  0  0  0  0  0  0  0  0  0  0
    3.4152   -0.4413    1.3090 O   0  0  0  0  0  0  0  0  0  0  0  0
   -3.7253    1.2580    1.0049 H   0  0  0  0  0  0  0  0  0  0  0  0
   -3.0277   -1.2601    0.0131 H   0  0  0  0  0  0  0  0  0  0  0  0
   -2.2840   -0.8320    1.6176 H   0  0  0  0  0  0  0  0  0  0  0  0
   -1.5131    1.3064    0.6662 H   0  0  0  0  0  0  0  0  0  0  0  0
   -2.2868    0.9445   -0.9013 H   0  0  0  0  0  0  0  0  0  0  0  0
   -0.9455   -1.1640   -1.1225 H   0  0  0  0  0  0  0  0  0  0  0  0
   -0.1436   -0.7697    0.4189 H   0  0  0  0  0  0  0  0  0  0  0  0
    0.5324    1.4430   -0.4526 H   0  0  0  0  0  0  0  0  0  0  0  0
   -0.1968    1.1059   -2.0429 H   0  0  0  0  0  0  0  0  0  0  0  0
    3.0546   -1.0970   -1.1521 H   0  0  0  0  0  0  0  0  0  0  0  0
    1.6650   -1.5184   -0.1435 H   0  0  0  0  0  0  0  0  0  0  0  0
    1.9121    0.8473    0.9335 H   0  0  0  0  0  0  0  0  0  0  0  0
    3.3156    1.0367   -0.1504 H   0  0  0  0  0  0  0  0  0  0  0  0
    2.8054   -1.0907    1.6950 H   0  0  0  0  0  0  0  0  0  0  0  0
  1  2  1  0
  2  3  1  0
  3  4  1  0
  4  5  1  0
  5  6  1  0
  6  7  1  0
  7  8  1  0
  8  9  1  0
  1 10  1  0
  2 11  1  0
  2 12  1  0
  3 13  1  0
  3 14  1  0
  4 15  1  0
  4 16  1  0
  5 17  1  0
  5 18  1  0
  7 19  1  0
  7 20  1  0
  8 21  1  0
  8 22  1  0
  9 23  1  0
M  END
