
     RDKit          3D

 20 20  0  0  0  0  0  0  0  0999 V2000
    2.8119    1.6521    0.2125 O   0  0  0  0  0  0  0  0  0  0  0  0
    1.6974    1.1285    0.8669 C   0  0  0  0  0  0  0  0  0  0  0  0
    1.1456   -0.0336    0.0862 C   0  0  0  0  0  0  0  0  0  0  0  0
   -0.0528   -0.6640    0.7075 C   0  0  0  0  0  0  0  0  0  0  0  0
   -0.5988   -1.8505   -0.1098 C   0  0  0  0  0  0  0  0  0  0  0  0
   -1.3991   -0.6093    0.1287 C   0  0  0  0  0  0  0  0  0  0  0  0
   -1.7560    0.1799   -1.0758 C   0  0  0  0  0  0  0  0  0  0  0  0
   -1.4904    1.5336   -0.8354 O   0  0  0  0  0  0  0  0  0  0  0  0
    3.3904    0.9437   -0.1771 H   0  0  0  0  0  0  0  0  0  0  0  0
    1.9558    0.7925    1.8810 H   0  0  0  0  0  0  0  0  0  0  0  0
    0.9521    1.9736    0.8951 H   0  0  0  0  0  0  0  0  0  0  0  0
    0.9372    0.2915   -0.9672 H   0  0  0  0  0  0  0  0  0  0  0  0
    1.9610   -0.7887   -0.0043 H   0  0  0  0  0  0  0  0  0  0  0  0
    0.0499   -0.8893    1.7833 H   0  0  0  0  0  0  0  0  0  0  0  0
   -0.1967   -2.0300   -1.1102 H   0  0  0  0  0  0  0  0  0  0  0  0
   -0.8509   -2.7780    0.4401 H   0  0  0  0  0  0  0  0  0  0  0  0
   -2.2464   -0.7616    0.8529 H   0  0  0  0  0  0  0  0  0  0  0  0
   -1.2743   -0.1758   -2.0064 H   0  0  0  0  0  0  0  0  0  0  0  0
   -2.8497    0.1139   -1.2532 H   0  0  0  0  0  0  0  0  0  0  0  0
   -2.1861    1.9715   -0.3147 H   0  0  0  0  0  0  0  0  0  0  0  0
  1  2  1  0
  2  3  1  0
  3  4  1  0
  4  5  1  0
  5  6  1  0
  6  7  1  0
  7  8  1  0
  6  4  1  0
  1  9  1  0
  2 10  1  0
  2 11  1  0
  3 12  1  0
  3 13  1  0
  4 14  1  0
  5 15  1  0
  5 16  1  0
  6 17  1  0
  7 18  1  0
  7 19  1  0
  8 20  1  0
M  END
