
     RDKit          3D

 19 20  0  0  0  0  0  0  0  0999 V2000
    3.1174    0.3329   -0.5324 O   0  0  0  0  0  0  0  0  0  0  0  0
    1.8435   -0.2254   -0.5744 C   0  0  0  0  0  0  0  0  0  0  0  0
    1.0435    0.3569    0.5630 C   0  0  0  0  0  0  0  0  0  0  0  0
   -0.3566   -0.1691    0.6263 C   0  0  0  0  0  0  0  0  0  0  0  0
   -0.6060   -1.5122    0.7915 O   0  0  0  0  0  0  0  0  0  0  0  0
   -1.5753   -1.5915   -0.2158 C   0  0  0  0  0  0  0  0  0  0  0  0
   -1.2573   -0.1483   -0.5449 C   0  0  0  0  0  0  0  0  0  0  0  0
   -1.4895    0.8189    0.5415 C   0  0  0  0  0  0  0  0  0  0  0  0
   -1.1052    2.1363    0.3752 O   0  0  0  0  0  0  0  0  0  0  0  0
    3.6113    0.0834    0.2892 H   0  0  0  0  0  0  0  0  0  0  0  0
    1.8547   -1.3273   -0.5384 H   0  0  0  0  0  0  0  0  0  0  0  0
    1.3802    0.1560   -1.5297 H   0  0  0  0  0  0  0  0  0  0  0  0
    0.9952    1.4583    0.4401 H   0  0  0  0  0  0  0  0  0  0  0  0
    1.5257    0.1682    1.5409 H   0  0  0  0  0  0  0  0  0  0  0  0
   -2.6193   -1.6402    0.1814 H   0  0  0  0  0  0  0  0  0  0  0  0
   -1.3722   -2.3117   -1.0165 H   0  0  0  0  0  0  0  0  0  0  0  0
   -0.9156    0.1267   -1.5420 H   0  0  0  0  0  0  0  0  0  0  0  0
   -2.2911    0.6303    1.2822 H   0  0  0  0  0  0  0  0  0  0  0  0
   -1.7833    2.6578   -0.1372 H   0  0  0  0  0  0  0  0  0  0  0  0
  1  2  1  0
  2  3  1  0
  3  4  1  0
  4  5  1  0
  5  6  1  0
  6  7  1  0
  7  8  1  0
  8  9  1  0
  7  4  1  0
  8  4  1  0
  1 10  1  0
  2 11  1  0
  2 12  1  0
  3 13  1  0
  3 14  1  0
  6 15  1  0
  6 16  1  0
  7 17  1  0
  8 18  1  0
  9 19  1  0
M  END
