
     RDKit          3D

 17 17  0  0  0  0  0  0  0  0999 V2000
   -3.0404    0.2828    0.1935 O   0  0  0  0  0  0  0  0  0  0  0  0
   -1.7935   -0.0521   -0.3440 C   0  0  0  0  0  0  0  0  0  0  0  0
   -0.7155   -0.0643    0.7488 C   0  0  0  0  0  0  0  0  0  0  0  0
    0.5820   -0.4279    0.1045 C   0  0  0  0  0  0  0  0  0  0  0  0
    1.0101    0.5555   -0.9898 C   0  0  0  0  0  0  0  0  0  0  0  0
    1.8151    0.3383    0.2649 C   0  0  0  0  0  0  0  0  0  0  0  0
    3.0255   -0.3301    0.0298 O   0  0  0  0  0  0  0  0  0  0  0  0
   -3.1481   -0.1478    1.0716 H   0  0  0  0  0  0  0  0  0  0  0  0
   -1.5010    0.6224   -1.1645 H   0  0  0  0  0  0  0  0  0  0  0  0
   -1.9163   -1.0618   -0.7944 H   0  0  0  0  0  0  0  0  0  0  0  0
   -0.6987    0.9632    1.1674 H   0  0  0  0  0  0  0  0  0  0  0  0
   -1.0020   -0.7341    1.5753 H   0  0  0  0  0  0  0  0  0  0  0  0
    0.6798   -1.5173   -0.1244 H   0  0  0  0  0  0  0  0  0  0  0  0
    1.3474    0.0912   -1.9438 H   0  0  0  0  0  0  0  0  0  0  0  0
    0.4617    1.5022   -1.0939 H   0  0  0  0  0  0  0  0  0  0  0  0
    1.9247    1.2242    0.9015 H   0  0  0  0  0  0  0  0  0  0  0  0
    2.9692   -1.2444    0.3975 H   0  0  0  0  0  0  0  0  0  0  0  0
  1  2  1  0
  2  3  1  0
  3  4  1  0
  4  5  1  0
  5  6  1  0
  6  7  1  0
  6  4  1  0
  1  8  1  0
  2  9  1  0
  2 10  1  0
  3 11  1  0
  3 12  1  0
  4 13  1  0
  5 14  1  0
  5 15  1  0
  6 16  1  0
  7 17  1  0
M  END
