
     RDKit          3D

 23 23  0  0  0  0  0  0  0  0999 V2000
    3.5135   -0.0399   -1.0888 O   0  0  0  0  0  0  0  0  0  0  0  0
    2.4474   -0.2658   -0.2313 C   0  0  0  0  0  0  0  0  0  0  0  0
    1.1753   -0.5947   -0.9930 C   0  0  0  0  0  0  0  0  0  0  0  0
    0.0845   -0.8202    0.0559 C   0  0  0  0  0  0  0  0  0  0  0  0
   -1.2129   -1.1514   -0.5958 C   0  0  0  0  0  0  0  0  0  0  0  0
   -2.2732   -0.3488   -0.5741 C   0  0  0  0  0  0  0  0  0  0  0  0
   -2.2233    0.9672    0.1241 C   0  0  0  0  0  0  0  0  0  0  0  0
   -1.3838    0.7238    1.3865 C   0  0  0  0  0  0  0  0  0  0  0  0
    0.0127    0.4085    0.8997 C   0  0  0  0  0  0  0  0  0  0  0  0
    3.8556    0.8934   -1.0355 H   0  0  0  0  0  0  0  0  0  0  0  0
    2.6264   -1.1100    0.4732 H   0  0  0  0  0  0  0  0  0  0  0  0
    2.2822    0.6731    0.3363 H   0  0  0  0  0  0  0  0  0  0  0  0
    0.9225    0.3149   -1.5860 H   0  0  0  0  0  0  0  0  0  0  0  0
    1.2922   -1.4387   -1.6695 H   0  0  0  0  0  0  0  0  0  0  0  0
    0.4390   -1.6604    0.7211 H   0  0  0  0  0  0  0  0  0  0  0  0
   -1.2924   -2.1005   -1.1154 H   0  0  0  0  0  0  0  0  0  0  0  0
   -3.2014   -0.6277   -1.0620 H   0  0  0  0  0  0  0  0  0  0  0  0
   -3.2074    1.3283    0.4309 H   0  0  0  0  0  0  0  0  0  0  0  0
   -1.6887    1.6620   -0.5717 H   0  0  0  0  0  0  0  0  0  0  0  0
   -1.8250   -0.1366    1.9132 H   0  0  0  0  0  0  0  0  0  0  0  0
   -1.3543    1.6388    1.9827 H   0  0  0  0  0  0  0  0  0  0  0  0
    0.6621    0.3617    1.8133 H   0  0  0  0  0  0  0  0  0  0  0  0
    0.3489    1.3232    0.3289 H   0  0  0  0  0  0  0  0  0  0  0  0
  1  2  1  0
  2  3  1  0
  3  4  1  0
  4  5  1  0
  5  6  2  0
  6  7  1  0
  7  8  1  0
  8  9  1  0
  9  4  1  0
  1 10  1  0
  2 11  1  0
  2 12  1  0
  3 13  1  0
  3 14  1  0
  4 15  1  0
  5 16  1  0
  6 17  1  0
  7 18  1  0
  7 19  1  0
  8 20  1  0
  8 21  1  0
  9 22  1  0
  9 23  1  0
M  END
