
     RDKit          3D

 20 20  0  0  0  0  0  0  0  0999 V2000
   -2.8288    0.6340   -0.6393 O   0  0  0  0  0  0  0  0  0  0  0  0
   -2.4363   -0.3257    0.2932 C   0  0  0  0  0  0  0  0  0  0  0  0
   -0.9974   -0.7092   -0.0789 C   0  0  0  0  0  0  0  0  0  0  0  0
   -0.1058    0.5166   -0.0098 C   0  0  0  0  0  0  0  0  0  0  0  0
    1.2869    0.0694   -0.3854 C   0  0  0  0  0  0  0  0  0  0  0  0
    1.4560   -0.4819   -1.6388 O   0  0  0  0  0  0  0  0  0  0  0  0
    2.4675    0.8436    0.1479 C   0  0  0  0  0  0  0  0  0  0  0  0
    2.0990   -0.4441    0.7772 C   0  0  0  0  0  0  0  0  0  0  0  0
   -3.6927    1.0200   -0.3406 H   0  0  0  0  0  0  0  0  0  0  0  0
   -2.4965    0.0281    1.3295 H   0  0  0  0  0  0  0  0  0  0  0  0
   -3.0478   -1.2502    0.2196 H   0  0  0  0  0  0  0  0  0  0  0  0
   -0.6858   -1.4408    0.7000 H   0  0  0  0  0  0  0  0  0  0  0  0
   -0.9938   -1.1619   -1.0709 H   0  0  0  0  0  0  0  0  0  0  0  0
   -0.1021    0.8502    1.0482 H   0  0  0  0  0  0  0  0  0  0  0  0
   -0.5092    1.2903   -0.6932 H   0  0  0  0  0  0  0  0  0  0  0  0
    0.6272   -0.3241   -2.1833 H   0  0  0  0  0  0  0  0  0  0  0  0
    3.4074    0.8542   -0.4486 H   0  0  0  0  0  0  0  0  0  0  0  0
    2.2226    1.8093    0.5908 H   0  0  0  0  0  0  0  0  0  0  0  0
    1.6425   -0.4354    1.8002 H   0  0  0  0  0  0  0  0  0  0  0  0
    2.6870   -1.3424    0.5823 H   0  0  0  0  0  0  0  0  0  0  0  0
  1  2  1  0
  2  3  1  0
  3  4  1  0
  4  5  1  0
  5  6  1  0
  5  7  1  0
  7  8  1  0
  8  5  1  0
  1  9  1  0
  2 10  1  0
  2 11  1  0
  3 12  1  0
  3 13  1  0
  4 14  1  0
  4 15  1  0
  6 16  1  0
  7 17  1  0
  7 18  1  0
  8 19  1  0
  8 20  1  0
M  END
