
     RDKit          3D

 21 22  0  0  0  0  0  0  0  0999 V2000
    2.1239   -1.2984    0.7619 O   0  0  0  0  0  0  0  0  0  0  0  0
    2.2100   -0.0217    0.2747 C   0  0  0  0  0  0  0  0  0  0  0  0
    1.2057    0.3218   -0.7768 C   0  0  0  0  0  0  0  0  0  0  0  0
   -0.2093    0.2135   -0.3610 C   0  0  0  0  0  0  0  0  0  0  0  0
   -0.7638   -1.1007    0.1091 C   0  0  0  0  0  0  0  0  0  0  0  0
   -2.1067   -0.6778    0.6834 C   0  0  0  0  0  0  0  0  0  0  0  0
   -1.8510    0.5469    1.2459 O   0  0  0  0  0  0  0  0  0  0  0  0
   -0.9234    1.2081    0.4469 C   0  0  0  0  0  0  0  0  0  0  0  0
   -1.1783    1.1919   -1.0073 C   0  0  0  0  0  0  0  0  0  0  0  0
    2.9925   -1.6298    1.1036 H   0  0  0  0  0  0  0  0  0  0  0  0
    3.2247    0.0844   -0.1976 H   0  0  0  0  0  0  0  0  0  0  0  0
    2.1729    0.7439    1.0662 H   0  0  0  0  0  0  0  0  0  0  0  0
    1.4278    1.3418   -1.1445 H   0  0  0  0  0  0  0  0  0  0  0  0
    1.3494   -0.3459   -1.6769 H   0  0  0  0  0  0  0  0  0  0  0  0
   -0.8650   -1.8500   -0.6811 H   0  0  0  0  0  0  0  0  0  0  0  0
   -0.1925   -1.5295    0.9692 H   0  0  0  0  0  0  0  0  0  0  0  0
   -2.4412   -1.4340    1.3863 H   0  0  0  0  0  0  0  0  0  0  0  0
   -2.8830   -0.6200   -0.1256 H   0  0  0  0  0  0  0  0  0  0  0  0
   -0.4136    2.0495    0.9448 H   0  0  0  0  0  0  0  0  0  0  0  0
   -0.7518    2.0103   -1.5895 H   0  0  0  0  0  0  0  0  0  0  0  0
   -2.1273    0.7956   -1.4317 H   0  0  0  0  0  0  0  0  0  0  0  0
  1  2  1  0
  2  3  1  0
  3  4  1  0
  4  5  1  0
  5  6  1  0
  6  7  1  0
  7  8  1  0
  8  9  1  0
  8  4  1  0
  9  4  1  0
  1 10  1  0
  2 11  1  0
  2 12  1  0
  3 13  1  0
  3 14  1  0
  5 15  1  0
  5 16  1  0
  6 17  1  0
  6 18  1  0
  8 19  1  0
  9 20  1  0
  9 21  1  0
M  END
