
     RDKit          3D

 19 19  0  0  0  0  0  0  0  0999 V2000
    2.6250    0.6278    0.9843 O   0  0  0  0  0  0  0  0  0  0  0  0
    2.5015   -0.1138   -0.1771 C   0  0  0  0  0  0  0  0  0  0  0  0
    1.1087   -0.7125   -0.2469 C   0  0  0  0  0  0  0  0  0  0  0  0
    0.0457    0.3680   -0.2475 C   0  0  0  0  0  0  0  0  0  0  0  0
   -1.2857   -0.3069   -0.3177 C   0  0  0  0  0  0  0  0  0  0  0  0
   -2.5580    0.4351   -0.3362 C   0  0  0  0  0  0  0  0  0  0  0  0
   -2.1138   -0.1610    0.9424 C   0  0  0  0  0  0  0  0  0  0  0  0
    2.8871    1.5532    0.7053 H   0  0  0  0  0  0  0  0  0  0  0  0
    3.2071   -0.9824   -0.1556 H   0  0  0  0  0  0  0  0  0  0  0  0
    2.7098    0.4596   -1.0929 H   0  0  0  0  0  0  0  0  0  0  0  0
    0.9894   -1.3981    0.6041 H   0  0  0  0  0  0  0  0  0  0  0  0
    1.0326   -1.3140   -1.1787 H   0  0  0  0  0  0  0  0  0  0  0  0
    0.1941    0.9381    0.7071 H   0  0  0  0  0  0  0  0  0  0  0  0
    0.1584    1.0079   -1.1282 H   0  0  0  0  0  0  0  0  0  0  0  0
   -1.2752   -1.2778   -0.8478 H   0  0  0  0  0  0  0  0  0  0  0  0
   -3.4251   -0.0539   -0.8140 H   0  0  0  0  0  0  0  0  0  0  0  0
   -2.5091    1.5233   -0.4543 H   0  0  0  0  0  0  0  0  0  0  0  0
   -2.5075   -1.1205    1.3226 H   0  0  0  0  0  0  0  0  0  0  0  0
   -1.7850    0.5280    1.7311 H   0  0  0  0  0  0  0  0  0  0  0  0
  1  2  1  0
  2  3  1  0
  3  4  1  0
  4  5  1  0
  5  6  1  0
  6  7  1  0
  7  5  1  0
  1  8  1  0
  2  9  1  0
  2 10  1  0
  3 11  1  0
  3 12  1  0
  4 13  1  0
  4 14  1  0
  5 15  1  0
  6 16  1  0
  6 17  1  0
  7 18  1  0
  7 19  1  0
M  END
