
     RDKit          3D

 23 24  0  0  0  0  0  0  0  0999 V2000
    2.3594    1.0389    1.8671 O   0  0  0  0  0  0  0  0  0  0  0  0
    1.6721    0.6194    0.7261 C   0  0  0  0  0  0  0  0  0  0  0  0
    0.5313   -0.2863    1.1110 C   0  0  0  0  0  0  0  0  0  0  0  0
   -0.2088   -0.6842   -0.1157 C   0  0  0  0  0  0  0  0  0  0  0  0
   -0.9030    0.4011   -0.8838 C   0  0  0  0  0  0  0  0  0  0  0  0
   -2.1443    0.9498   -0.2204 C   0  0  0  0  0  0  0  0  0  0  0  0
   -0.9559    1.8021   -0.5006 C   0  0  0  0  0  0  0  0  0  0  0  0
    0.5833   -1.6958   -0.9542 C   0  0  0  0  0  0  0  0  0  0  0  0
   -0.7064   -2.0727   -0.3065 C   0  0  0  0  0  0  0  0  0  0  0  0
    3.2886    1.2895    1.5658 H   0  0  0  0  0  0  0  0  0  0  0  0
    2.4186   -0.0140    0.1094 H   0  0  0  0  0  0  0  0  0  0  0  0
    1.4191    1.4357    0.0700 H   0  0  0  0  0  0  0  0  0  0  0  0
    0.9358   -1.1705    1.6741 H   0  0  0  0  0  0  0  0  0  0  0  0
   -0.1310    0.3036    1.7767 H   0  0  0  0  0  0  0  0  0  0  0  0
   -0.9715    0.1912   -1.9769 H   0  0  0  0  0  0  0  0  0  0  0  0
   -2.3440    0.6458    0.8263 H   0  0  0  0  0  0  0  0  0  0  0  0
   -3.0763    1.0479   -0.8176 H   0  0  0  0  0  0  0  0  0  0  0  0
   -1.0223    2.5640   -1.3406 H   0  0  0  0  0  0  0  0  0  0  0  0
   -0.5615    2.2979    0.4019 H   0  0  0  0  0  0  0  0  0  0  0  0
    0.6157   -1.4862   -2.0421 H   0  0  0  0  0  0  0  0  0  0  0  0
    1.4709   -2.1858   -0.5063 H   0  0  0  0  0  0  0  0  0  0  0  0
   -1.5560   -2.1899   -1.0053 H   0  0  0  0  0  0  0  0  0  0  0  0
   -0.7137   -2.8013    0.5416 H   0  0  0  0  0  0  0  0  0  0  0  0
  1  2  1  0
  2  3  1  0
  3  4  1  0
  4  5  1  0
  5  6  1  0
  6  7  1  0
  4  8  1  0
  8  9  1  0
  9  4  1  0
  7  5  1  0
  1 10  1  0
  2 11  1  0
  2 12  1  0
  3 13  1  0
  3 14  1  0
  5 15  1  0
  6 16  1  0
  6 17  1  0
  7 18  1  0
  7 19  1  0
  8 20  1  0
  8 21  1  0
  9 22  1  0
  9 23  1  0
M  END
