
     RDKit          3D

 19 20  0  0  0  0  0  0  0  0999 V2000
   -2.2931   -0.2125   -1.2340 O   0  0  0  0  0  0  0  0  0  0  0  0
   -2.1729    0.3661   -0.0042 C   0  0  0  0  0  0  0  0  0  0  0  0
   -1.0699   -0.1323    0.8430 C   0  0  0  0  0  0  0  0  0  0  0  0
    0.2763   -0.0003    0.3416 C   0  0  0  0  0  0  0  0  0  0  0  0
    1.3717   -0.5153    1.2237 C   0  0  0  0  0  0  0  0  0  0  0  0
    2.4538   -0.1422    0.4928 C   0  0  0  0  0  0  0  0  0  0  0  0
    1.7882    0.5209   -0.6602 C   0  0  0  0  0  0  0  0  0  0  0  0
    0.6652   -0.4629   -1.0103 C   0  0  0  0  0  0  0  0  0  0  0  0
    0.7811    1.2502    0.0025 O   0  0  0  0  0  0  0  0  0  0  0  0
   -2.3130    0.4786   -1.9680 H   0  0  0  0  0  0  0  0  0  0  0  0
   -2.1425    1.4831   -0.1006 H   0  0  0  0  0  0  0  0  0  0  0  0
   -3.1396    0.1707    0.5487 H   0  0  0  0  0  0  0  0  0  0  0  0
   -1.2571   -1.2013    1.1154 H   0  0  0  0  0  0  0  0  0  0  0  0
   -1.1424    0.4108    1.8329 H   0  0  0  0  0  0  0  0  0  0  0  0
    1.3304   -1.0340    2.1684 H   0  0  0  0  0  0  0  0  0  0  0  0
    3.5024   -0.3008    0.7182 H   0  0  0  0  0  0  0  0  0  0  0  0
    2.3397    0.9673   -1.4323 H   0  0  0  0  0  0  0  0  0  0  0  0
    0.0187   -0.1256   -1.8244 H   0  0  0  0  0  0  0  0  0  0  0  0
    1.0032   -1.5204   -1.0531 H   0  0  0  0  0  0  0  0  0  0  0  0
  1  2  1  0
  2  3  1  0
  3  4  1  0
  4  5  1  0
  5  6  2  0
  6  7  1  0
  7  8  1  0
  7  9  1  0
  8  4  1  0
  9  4  1  0
  1 10  1  0
  2 11  1  0
  2 12  1  0
  3 13  1  0
  3 14  1  0
  5 15  1  0
  6 16  1  0
  7 17  1  0
  8 18  1  0
  8 19  1  0
M  END
