
     RDKit          3D

 19 19  0  0  0  0  0  0  0  0999 V2000
    3.0207   -0.1888    0.0747 O   0  0  0  0  0  0  0  0  0  0  0  0
    2.7605   -1.4774   -0.4206 C   0  0  0  0  0  0  0  0  0  0  0  0
    1.4547   -1.9698    0.2181 C   0  0  0  0  0  0  0  0  0  0  0  0
    0.3856   -1.0585   -0.1418 C   0  0  0  0  0  0  0  0  0  0  0  0
   -0.5025   -0.2777   -0.4334 C   0  0  0  0  0  0  0  0  0  0  0  0
   -1.5550    0.6800   -0.7757 C   0  0  0  0  0  0  0  0  0  0  0  0
   -2.6376    0.8442    0.2895 C   0  0  0  0  0  0  0  0  0  0  0  0
   -1.6576    1.9361    0.0432 C   0  0  0  0  0  0  0  0  0  0  0  0
   -2.1241    3.0903   -0.5595 O   0  0  0  0  0  0  0  0  0  0  0  0
    3.9921   -0.1117    0.3332 H   0  0  0  0  0  0  0  0  0  0  0  0
    2.5314   -1.3729   -1.5059 H   0  0  0  0  0  0  0  0  0  0  0  0
    3.5795   -2.1807   -0.2273 H   0  0  0  0  0  0  0  0  0  0  0  0
    1.5500   -2.0443    1.3117 H   0  0  0  0  0  0  0  0  0  0  0  0
    1.2093   -2.9657   -0.2052 H   0  0  0  0  0  0  0  0  0  0  0  0
   -1.8718    0.6975   -1.8388 H   0  0  0  0  0  0  0  0  0  0  0  0
   -3.6864    0.9859   -0.0578 H   0  0  0  0  0  0  0  0  0  0  0  0
   -2.5318    0.2376    1.2303 H   0  0  0  0  0  0  0  0  0  0  0  0
   -0.8118    2.1066    0.7433 H   0  0  0  0  0  0  0  0  0  0  0  0
   -3.1052    3.0693   -0.5564 H   0  0  0  0  0  0  0  0  0  0  0  0
  1  2  1  0
  2  3  1  0
  3  4  1  0
  4  5  3  0
  5  6  1  0
  6  7  1  0
  7  8  1  0
  8  9  1  0
  8  6  1  0
  1 10  1  0
  2 11  1  0
  2 12  1  0
  3 13  1  0
  3 14  1  0
  6 15  1  0
  7 16  1  0
  7 17  1  0
  8 18  1  0
  9 19  1  0
M  END
