
     RDKit          3D

 21 21  0  0  0  0  0  0  0  0999 V2000
    4.0040   -0.2975    0.0413 O   0  0  0  0  0  0  0  0  0  0  0  0
    2.7009   -0.8034   -0.1121 C   0  0  0  0  0  0  0  0  0  0  0  0
    1.7827    0.3996   -0.1257 C   0  0  0  0  0  0  0  0  0  0  0  0
    0.3303    0.0111   -0.2857 C   0  0  0  0  0  0  0  0  0  0  0  0
   -0.2515   -0.8117    0.6713 O   0  0  0  0  0  0  0  0  0  0  0  0
   -0.6150    0.5308    0.7755 C   0  0  0  0  0  0  0  0  0  0  0  0
   -1.9993    0.9554    0.4255 C   0  0  0  0  0  0  0  0  0  0  0  0
   -2.8632   -0.0985   -0.1766 C   0  0  0  0  0  0  0  0  0  0  0  0
   -2.3095   -0.5736   -1.3596 O   0  0  0  0  0  0  0  0  0  0  0  0
    4.2058   -0.3774    1.0156 H   0  0  0  0  0  0  0  0  0  0  0  0
    2.4618   -1.5028    0.7152 H   0  0  0  0  0  0  0  0  0  0  0  0
    2.6323   -1.3859   -1.0509 H   0  0  0  0  0  0  0  0  0  0  0  0
    1.9120    1.0284    0.7722 H   0  0  0  0  0  0  0  0  0  0  0  0
    2.0618    1.0152   -1.0057 H   0  0  0  0  0  0  0  0  0  0  0  0
   -0.0244   -0.1175   -1.3180 H   0  0  0  0  0  0  0  0  0  0  0  0
   -0.1245    1.0224    1.6606 H   0  0  0  0  0  0  0  0  0  0  0  0
   -2.0087    1.8297   -0.2883 H   0  0  0  0  0  0  0  0  0  0  0  0
   -2.4906    1.3005    1.3639 H   0  0  0  0  0  0  0  0  0  0  0  0
   -3.0492   -0.9595    0.5066 H   0  0  0  0  0  0  0  0  0  0  0  0
   -3.8497    0.3797   -0.4053 H   0  0  0  0  0  0  0  0  0  0  0  0
   -2.5061   -1.5451   -1.4857 H   0  0  0  0  0  0  0  0  0  0  0  0
  1  2  1  0
  2  3  1  0
  3  4  1  0
  4  5  1  0
  5  6  1  0
  6  7  1  0
  7  8  1  0
  8  9  1  0
  6  4  1  0
  1 10  1  0
  2 11  1  0
  2 12  1  0
  3 13  1  0
  3 14  1  0
  4 15  1  0
  6 16  1  0
  7 17  1  0
  7 18  1  0
  8 19  1  0
  8 20  1  0
  9 21  1  0
M  END
