
     RDKit          3D

 19 19  0  0  0  0  0  0  0  0999 V2000
    2.5774   -0.1353   -1.2250 O   0  0  0  0  0  0  0  0  0  0  0  0
    2.1946   -0.2044    0.0999 C   0  0  0  0  0  0  0  0  0  0  0  0
    0.8426   -0.8080    0.3060 C   0  0  0  0  0  0  0  0  0  0  0  0
   -0.2715   -0.0828   -0.3602 C   0  0  0  0  0  0  0  0  0  0  0  0
   -1.5944   -0.7756   -0.0887 C   0  0  0  0  0  0  0  0  0  0  0  0
   -2.2045    0.6307   -0.1409 C   0  0  0  0  0  0  0  0  0  0  0  0
   -0.8335    1.1085    0.3586 C   0  0  0  0  0  0  0  0  0  0  0  0
    2.9801    0.7515   -1.3744 H   0  0  0  0  0  0  0  0  0  0  0  0
    2.9319   -0.8607    0.6237 H   0  0  0  0  0  0  0  0  0  0  0  0
    2.2737    0.7844    0.6005 H   0  0  0  0  0  0  0  0  0  0  0  0
    0.8667   -1.8475   -0.1193 H   0  0  0  0  0  0  0  0  0  0  0  0
    0.6391   -0.8685    1.3811 H   0  0  0  0  0  0  0  0  0  0  0  0
   -0.1306    0.1548   -1.4341 H   0  0  0  0  0  0  0  0  0  0  0  0
   -1.9450   -1.4606   -0.8566 H   0  0  0  0  0  0  0  0  0  0  0  0
   -1.5871   -1.1730    0.9603 H   0  0  0  0  0  0  0  0  0  0  0  0
   -3.0116    0.8131    0.5600 H   0  0  0  0  0  0  0  0  0  0  0  0
   -2.3688    0.8867   -1.1988 H   0  0  0  0  0  0  0  0  0  0  0  0
   -0.5700    2.0951   -0.0436 H   0  0  0  0  0  0  0  0  0  0  0  0
   -0.7888    0.9916    1.4419 H   0  0  0  0  0  0  0  0  0  0  0  0
  1  2  1  0
  2  3  1  0
  3  4  1  0
  4  5  1  0
  5  6  1  0
  6  7  1  0
  7  4  1  0
  1  8  1  0
  2  9  1  0
  2 10  1  0
  3 11  1  0
  3 12  1  0
  4 13  1  0
  5 14  1  0
  5 15  1  0
  6 16  1  0
  6 17  1  0
  7 18  1  0
  7 19  1  0
M  END
