
     RDKit          3D

 20 20  0  0  0  0  0  0  0  0999 V2000
    2.6683   -0.8233   -1.1355 O   0  0  0  0  0  0  0  0  0  0  0  0
    2.5918    0.0137   -0.0255 C   0  0  0  0  0  0  0  0  0  0  0  0
    1.7104   -0.5694    1.0359 C   0  0  0  0  0  0  0  0  0  0  0  0
    0.3063   -0.8010    0.5890 C   0  0  0  0  0  0  0  0  0  0  0  0
   -0.3548    0.3260    0.1785 O   0  0  0  0  0  0  0  0  0  0  0  0
   -1.6422    0.0126   -0.2148 C   0  0  0  0  0  0  0  0  0  0  0  0
   -2.6702    1.0438    0.2398 C   0  0  0  0  0  0  0  0  0  0  0  0
   -2.3693    0.8289   -1.2156 C   0  0  0  0  0  0  0  0  0  0  0  0
    2.6531   -0.2778   -1.9483 H   0  0  0  0  0  0  0  0  0  0  0  0
    3.6228    0.0859    0.3830 H   0  0  0  0  0  0  0  0  0  0  0  0
    2.2961    1.0277   -0.3344 H   0  0  0  0  0  0  0  0  0  0  0  0
    1.8054    0.0191    1.9583 H   0  0  0  0  0  0  0  0  0  0  0  0
    2.1392   -1.5847    1.2824 H   0  0  0  0  0  0  0  0  0  0  0  0
    0.3391   -1.5246   -0.2601 H   0  0  0  0  0  0  0  0  0  0  0  0
   -0.2552   -1.2241    1.4577 H   0  0  0  0  0  0  0  0  0  0  0  0
   -1.9171   -1.0585   -0.1360 H   0  0  0  0  0  0  0  0  0  0  0  0
   -2.3217    1.9677    0.7361 H   0  0  0  0  0  0  0  0  0  0  0  0
   -3.5953    0.6110    0.6174 H   0  0  0  0  0  0  0  0  0  0  0  0
   -1.8619    1.6252   -1.7946 H   0  0  0  0  0  0  0  0  0  0  0  0
   -3.1450    0.3018   -1.8087 H   0  0  0  0  0  0  0  0  0  0  0  0
  1  2  1  0
  2  3  1  0
  3  4  1  0
  4  5  1  0
  5  6  1  0
  6  7  1  0
  7  8  1  0
  8  6  1  0
  1  9  1  0
  2 10  1  0
  2 11  1  0
  3 12  1  0
  3 13  1  0
  4 14  1  0
  4 15  1  0
  6 16  1  0
  7 17  1  0
  7 18  1  0
  8 19  1  0
  8 20  1  0
M  END
