
     RDKit          3D

 21 22  0  0  0  0  0  0  0  0999 V2000
    2.7689    0.7249    1.1723 O   0  0  0  0  0  0  0  0  0  0  0  0
    2.6385   -0.2539    0.1867 C   0  0  0  0  0  0  0  0  0  0  0  0
    1.4824    0.0457   -0.7383 C   0  0  0  0  0  0  0  0  0  0  0  0
    0.1873    0.1091   -0.0084 C   0  0  0  0  0  0  0  0  0  0  0  0
   -1.0176    0.3988   -0.8264 C   0  0  0  0  0  0  0  0  0  0  0  0
   -2.1946    0.9776   -0.0991 C   0  0  0  0  0  0  0  0  0  0  0  0
   -2.9717   -0.1548    0.1675 O   0  0  0  0  0  0  0  0  0  0  0  0
   -2.0030   -0.9862    0.7764 C   0  0  0  0  0  0  0  0  0  0  0  0
   -0.8215   -0.9732   -0.1250 C   0  0  0  0  0  0  0  0  0  0  0  0
    2.9224    1.6238    0.7935 H   0  0  0  0  0  0  0  0  0  0  0  0
    3.5718   -0.3930   -0.3673 H   0  0  0  0  0  0  0  0  0  0  0  0
    2.3922   -1.2038    0.7171 H   0  0  0  0  0  0  0  0  0  0  0  0
    1.6894    1.0530   -1.1904 H   0  0  0  0  0  0  0  0  0  0  0  0
    1.5036   -0.6741   -1.5716 H   0  0  0  0  0  0  0  0  0  0  0  0
    0.2444    0.6043    0.9822 H   0  0  0  0  0  0  0  0  0  0  0  0
   -1.0180    0.3187   -1.9248 H   0  0  0  0  0  0  0  0  0  0  0  0
   -1.8627    1.3999    0.8761 H   0  0  0  0  0  0  0  0  0  0  0  0
   -2.7322    1.7227   -0.7096 H   0  0  0  0  0  0  0  0  0  0  0  0
   -2.4835   -1.9765    0.8756 H   0  0  0  0  0  0  0  0  0  0  0  0
   -1.7516   -0.5377    1.7627 H   0  0  0  0  0  0  0  0  0  0  0  0
   -0.5444   -1.8252   -0.7492 H   0  0  0  0  0  0  0  0  0  0  0  0
  1  2  1  0
  2  3  1  0
  3  4  1  0
  4  5  1  0
  5  6  1  0
  6  7  1  0
  7  8  1  0
  8  9  1  0
  9  4  1  0
  9  5  1  0
  1 10  1  0
  2 11  1  0
  2 12  1  0
  3 13  1  0
  3 14  1  0
  4 15  1  0
  5 16  1  0
  6 17  1  0
  6 18  1  0
  8 19  1  0
  8 20  1  0
  9 21  1  0
M  END
