
     RDKit          3D

 23 22  0  0  0  0  0  0  0  0999 V2000
   -3.0602   -1.3941   -0.7745 O   0  0  0  0  0  0  0  0  0  0  0  0
   -2.3429   -0.4489   -0.0053 C   0  0  0  0  0  0  0  0  0  0  0  0
   -0.9017   -0.6247   -0.4035 C   0  0  0  0  0  0  0  0  0  0  0  0
    0.0281    0.2919    0.3239 C   0  0  0  0  0  0  0  0  0  0  0  0
   -0.3678    1.7205    0.0186 C   0  0  0  0  0  0  0  0  0  0  0  0
    0.5022    2.5831    0.6904 O   0  0  0  0  0  0  0  0  0  0  0  0
    1.4602    0.1557   -0.1366 C   0  0  0  0  0  0  0  0  0  0  0  0
    2.0091   -1.2272    0.0596 C   0  0  0  0  0  0  0  0  0  0  0  0
    3.3282   -1.2789   -0.3842 O   0  0  0  0  0  0  0  0  0  0  0  0
   -3.4095   -2.0557   -0.1444 H   0  0  0  0  0  0  0  0  0  0  0  0
   -2.5082   -0.6047    1.0807 H   0  0  0  0  0  0  0  0  0  0  0  0
   -2.7426    0.5435   -0.2780 H   0  0  0  0  0  0  0  0  0  0  0  0
   -0.5437   -1.6616   -0.2425 H   0  0  0  0  0  0  0  0  0  0  0  0
   -0.8650   -0.4770   -1.5101 H   0  0  0  0  0  0  0  0  0  0  0  0
   -0.0527    0.1585    1.4401 H   0  0  0  0  0  0  0  0  0  0  0  0
   -1.4237    1.9191    0.2963 H   0  0  0  0  0  0  0  0  0  0  0  0
   -0.2960    1.8493   -1.0802 H   0  0  0  0  0  0  0  0  0  0  0  0
    0.3453    3.4838    0.3298 H   0  0  0  0  0  0  0  0  0  0  0  0
    1.4779    0.4455   -1.2073 H   0  0  0  0  0  0  0  0  0  0  0  0
    2.0531    0.8991    0.4221 H   0  0  0  0  0  0  0  0  0  0  0  0
    1.9395   -1.6003    1.0747 H   0  0  0  0  0  0  0  0  0  0  0  0
    1.4399   -1.9137   -0.6339 H   0  0  0  0  0  0  0  0  0  0  0  0
    3.9303   -0.7632    0.2394 H   0  0  0  0  0  0  0  0  0  0  0  0
  1  2  1  0
  2  3  1  0
  3  4  1  0
  4  5  1  0
  5  6  1  0
  4  7  1  0
  7  8  1  0
  8  9  1  0
  1 10  1  0
  2 11  1  0
  2 12  1  0
  3 13  1  0
  3 14  1  0
  4 15  1  0
  5 16  1  0
  5 17  1  0
  6 18  1  0
  7 19  1  0
  7 20  1  0
  8 21  1  0
  8 22  1  0
  9 23  1  0
M  END
