
     RDKit          3D

 23 23  0  0  0  0  0  0  0  0999 V2000
    3.6033    0.2265   -0.5936 O   0  0  0  0  0  0  0  0  0  0  0  0
    2.4567    0.5182    0.1450 C   0  0  0  0  0  0  0  0  0  0  0  0
    1.4179   -0.5029   -0.2185 C   0  0  0  0  0  0  0  0  0  0  0  0
    0.1112   -0.3058    0.5143 C   0  0  0  0  0  0  0  0  0  0  0  0
   -0.5158    1.0166    0.2451 C   0  0  0  0  0  0  0  0  0  0  0  0
   -1.9948    1.0238    0.1557 C   0  0  0  0  0  0  0  0  0  0  0  0
   -2.6021   -0.2715   -0.2950 C   0  0  0  0  0  0  0  0  0  0  0  0
   -2.0818   -1.3186    0.4857 O   0  0  0  0  0  0  0  0  0  0  0  0
   -0.7669   -1.4809    0.1204 C   0  0  0  0  0  0  0  0  0  0  0  0
    4.3900    0.0421   -0.0461 H   0  0  0  0  0  0  0  0  0  0  0  0
    2.7342    0.3462    1.2192 H   0  0  0  0  0  0  0  0  0  0  0  0
    2.1227    1.5517    0.0477 H   0  0  0  0  0  0  0  0  0  0  0  0
    1.7855   -1.5116    0.0512 H   0  0  0  0  0  0  0  0  0  0  0  0
    1.2033   -0.5220   -1.3011 H   0  0  0  0  0  0  0  0  0  0  0  0
    0.3292   -0.4199    1.6102 H   0  0  0  0  0  0  0  0  0  0  0  0
   -0.0876    1.5058   -0.6724 H   0  0  0  0  0  0  0  0  0  0  0  0
   -0.2170    1.7060    1.0880 H   0  0  0  0  0  0  0  0  0  0  0  0
   -2.3452    1.8156   -0.5672 H   0  0  0  0  0  0  0  0  0  0  0  0
   -2.4874    1.3094    1.1262 H   0  0  0  0  0  0  0  0  0  0  0  0
   -2.4233   -0.4699   -1.3737 H   0  0  0  0  0  0  0  0  0  0  0  0
   -3.6895   -0.2396   -0.0759 H   0  0  0  0  0  0  0  0  0  0  0  0
   -0.3007   -2.3810    0.5941 H   0  0  0  0  0  0  0  0  0  0  0  0
   -0.6420   -1.6381   -0.9809 H   0  0  0  0  0  0  0  0  0  0  0  0
  1  2  1  0
  2  3  1  0
  3  4  1  0
  4  5  1  0
  5  6  1  0
  6  7  1  0
  7  8  1  0
  8  9  1  0
  9  4  1  0
  1 10  1  0
  2 11  1  0
  2 12  1  0
  3 13  1  0
  3 14  1  0
  4 15  1  0
  5 16  1  0
  5 17  1  0
  6 18  1  0
  6 19  1  0
  7 20  1  0
  7 21  1  0
  9 22  1  0
  9 23  1  0
M  END
