
     RDKit          3D

 14 14  0  0  0  0  0  0  0  0999 V2000
    2.6280    0.2386   -0.3934 O   0  0  0  0  0  0  0  0  0  0  0  0
    1.5480   -0.5818   -0.0660 C   0  0  0  0  0  0  0  0  0  0  0  0
    0.3120    0.2921    0.0191 C   0  0  0  0  0  0  0  0  0  0  0  0
   -0.9153   -0.5060    0.3697 C   0  0  0  0  0  0  0  0  0  0  0  0
   -2.1748    0.3257    0.4659 C   0  0  0  0  0  0  0  0  0  0  0  0
   -1.9558   -0.5979   -0.5430 O   0  0  0  0  0  0  0  0  0  0  0  0
    2.4328    1.1371   -0.0108 H   0  0  0  0  0  0  0  0  0  0  0  0
    1.6865   -1.0292    0.9364 H   0  0  0  0  0  0  0  0  0  0  0  0
    1.4732   -1.3385   -0.8703 H   0  0  0  0  0  0  0  0  0  0  0  0
    0.1926    0.9319   -0.8657 H   0  0  0  0  0  0  0  0  0  0  0  0
    0.4884    0.9857    0.8845 H   0  0  0  0  0  0  0  0  0  0  0  0
   -0.7440   -1.3010    1.1028 H   0  0  0  0  0  0  0  0  0  0  0  0
   -2.8251    0.0669    1.3235 H   0  0  0  0  0  0  0  0  0  0  0  0
   -2.1466    1.3766    0.1053 H   0  0  0  0  0  0  0  0  0  0  0  0
  1  2  1  0
  2  3  1  0
  3  4  1  0
  4  5  1  0
  5  6  1  0
  6  4  1  0
  1  7  1  0
  2  8  1  0
  2  9  1  0
  3 10  1  0
  3 11  1  0
  4 12  1  0
  5 13  1  0
  5 14  1  0
M  END
