
     RDKit          3D

 21 22  0  0  0  0  0  0  0  0999 V2000
    3.5785    0.2982   -0.6703 O   0  0  0  0  0  0  0  0  0  0  0  0
    2.3960   -0.4029   -0.4317 C   0  0  0  0  0  0  0  0  0  0  0  0
    1.4584    0.5322    0.2894 C   0  0  0  0  0  0  0  0  0  0  0  0
    0.1535   -0.1603    0.5818 C   0  0  0  0  0  0  0  0  0  0  0  0
   -0.5875   -0.6484   -0.6470 C   0  0  0  0  0  0  0  0  0  0  0  0
   -1.8034   -0.0162   -0.1051 C   0  0  0  0  0  0  0  0  0  0  0  0
   -3.1257   -0.1499   -0.3623 C   0  0  0  0  0  0  0  0  0  0  0  0
   -2.5910   -1.0040    0.6842 O   0  0  0  0  0  0  0  0  0  0  0  0
   -1.0041    0.8176    0.7999 C   0  0  0  0  0  0  0  0  0  0  0  0
    3.7414    0.9853    0.0410 H   0  0  0  0  0  0  0  0  0  0  0  0
    2.5743   -1.3087    0.1593 H   0  0  0  0  0  0  0  0  0  0  0  0
    1.9427   -0.7212   -1.3971 H   0  0  0  0  0  0  0  0  0  0  0  0
    1.3498    1.4545   -0.2758 H   0  0  0  0  0  0  0  0  0  0  0  0
    1.9262    0.7762    1.2674 H   0  0  0  0  0  0  0  0  0  0  0  0
    0.2262   -0.9487    1.3299 H   0  0  0  0  0  0  0  0  0  0  0  0
   -0.6024   -1.7663   -0.7592 H   0  0  0  0  0  0  0  0  0  0  0  0
   -0.1895   -0.2111   -1.5860 H   0  0  0  0  0  0  0  0  0  0  0  0
   -3.8875    0.5820   -0.0306 H   0  0  0  0  0  0  0  0  0  0  0  0
   -3.5074   -0.7962   -1.1860 H   0  0  0  0  0  0  0  0  0  0  0  0
   -1.3333    0.8804    1.8560 H   0  0  0  0  0  0  0  0  0  0  0  0
   -0.7151    1.8076    0.4423 H   0  0  0  0  0  0  0  0  0  0  0  0
  1  2  1  0
  2  3  1  0
  3  4  1  0
  4  5  1  0
  5  6  1  0
  6  7  1  0
  7  8  1  0
  6  9  1  0
  9  4  1  0
  8  6  1  0
  1 10  1  0
  2 11  1  0
  2 12  1  0
  3 13  1  0
  3 14  1  0
  4 15  1  0
  5 16  1  0
  5 17  1  0
  7 18  1  0
  7 19  1  0
  9 20  1  0
  9 21  1  0
M  END
