
     RDKit          3D

 21 21  0  0  0  0  0  0  0  0999 V2000
    3.7610   -0.0316    0.0215 O   0  0  0  0  0  0  0  0  0  0  0  0
    2.4622    0.3469    0.3715 C   0  0  0  0  0  0  0  0  0  0  0  0
    1.5164   -0.5574   -0.3840 C   0  0  0  0  0  0  0  0  0  0  0  0
    0.0898   -0.2149   -0.0623 C   0  0  0  0  0  0  0  0  0  0  0  0
   -0.3822    0.7021    0.7324 C   0  0  0  0  0  0  0  0  0  0  0  0
   -1.8715    0.6871    0.7493 C   0  0  0  0  0  0  0  0  0  0  0  0
   -2.3519    1.7140   -0.0775 O   0  0  0  0  0  0  0  0  0  0  0  0
   -2.2684   -0.6282    0.1149 C   0  0  0  0  0  0  0  0  0  0  0  0
   -1.0456   -0.9715   -0.6876 C   0  0  0  0  0  0  0  0  0  0  0  0
    4.0375    0.4909   -0.7608 H   0  0  0  0  0  0  0  0  0  0  0  0
    2.3469    1.4071    0.0946 H   0  0  0  0  0  0  0  0  0  0  0  0
    2.2787    0.1602    1.4568 H   0  0  0  0  0  0  0  0  0  0  0  0
    1.7428   -1.5923   -0.0692 H   0  0  0  0  0  0  0  0  0  0  0  0
    1.7019   -0.5208   -1.4810 H   0  0  0  0  0  0  0  0  0  0  0  0
    0.2026    1.3955    1.3146 H   0  0  0  0  0  0  0  0  0  0  0  0
   -2.2898    0.7678    1.7528 H   0  0  0  0  0  0  0  0  0  0  0  0
   -2.3669    1.3592   -1.0218 H   0  0  0  0  0  0  0  0  0  0  0  0
   -3.1453   -0.4816   -0.5242 H   0  0  0  0  0  0  0  0  0  0  0  0
   -2.4686   -1.4086    0.8901 H   0  0  0  0  0  0  0  0  0  0  0  0
   -0.8026   -2.0389   -0.7054 H   0  0  0  0  0  0  0  0  0  0  0  0
   -1.1471   -0.5847   -1.7247 H   0  0  0  0  0  0  0  0  0  0  0  0
  1  2  1  0
  2  3  1  0
  3  4  1  0
  4  5  2  0
  5  6  1  0
  6  7  1  0
  6  8  1  0
  8  9  1  0
  9  4  1  0
  1 10  1  0
  2 11  1  0
  2 12  1  0
  3 13  1  0
  3 14  1  0
  5 15  1  0
  6 16  1  0
  7 17  1  0
  8 18  1  0
  8 19  1  0
  9 20  1  0
  9 21  1  0
M  END
