
     RDKit          3D

 23 23  0  0  0  0  0  0  0  0999 V2000
    3.1793    0.7355    0.5742 O   0  0  0  0  0  0  0  0  0  0  0  0
    2.7008    0.2495   -0.6482 C   0  0  0  0  0  0  0  0  0  0  0  0
    1.5715   -0.7059   -0.4457 C   0  0  0  0  0  0  0  0  0  0  0  0
    0.3925   -0.0946    0.2626 C   0  0  0  0  0  0  0  0  0  0  0  0
   -0.7209   -1.0933    0.4447 C   0  0  0  0  0  0  0  0  0  0  0  0
   -1.8927   -0.7371   -0.4652 C   0  0  0  0  0  0  0  0  0  0  0  0
   -2.4363    0.5890    0.0860 C   0  0  0  0  0  0  0  0  0  0  0  0
   -1.2173    1.4564    0.3326 C   0  0  0  0  0  0  0  0  0  0  0  0
   -0.1186    1.0085   -0.4253 O   0  0  0  0  0  0  0  0  0  0  0  0
    2.7847    0.2613    1.3410 H   0  0  0  0  0  0  0  0  0  0  0  0
    2.4183    1.0974   -1.3211 H   0  0  0  0  0  0  0  0  0  0  0  0
    3.5430   -0.3149   -1.1014 H   0  0  0  0  0  0  0  0  0  0  0  0
    1.9374   -1.5376    0.1904 H   0  0  0  0  0  0  0  0  0  0  0  0
    1.2882   -1.1483   -1.4141 H   0  0  0  0  0  0  0  0  0  0  0  0
    0.7476    0.3044    1.2421 H   0  0  0  0  0  0  0  0  0  0  0  0
   -0.4115   -2.1311    0.2192 H   0  0  0  0  0  0  0  0  0  0  0  0
   -1.1296   -1.0381    1.4819 H   0  0  0  0  0  0  0  0  0  0  0  0
   -1.5053   -0.5643   -1.5117 H   0  0  0  0  0  0  0  0  0  0  0  0
   -2.6478   -1.5338   -0.4295 H   0  0  0  0  0  0  0  0  0  0  0  0
   -3.1469    1.0428   -0.6049 H   0  0  0  0  0  0  0  0  0  0  0  0
   -2.9338    0.2978    1.0573 H   0  0  0  0  0  0  0  0  0  0  0  0
   -1.4466    2.5126    0.0896 H   0  0  0  0  0  0  0  0  0  0  0  0
   -0.9559    1.3439    1.4056 H   0  0  0  0  0  0  0  0  0  0  0  0
  1  2  1  0
  2  3  1  0
  3  4  1  0
  4  5  1  0
  5  6  1  0
  6  7  1  0
  7  8  1  0
  8  9  1  0
  9  4  1  0
  1 10  1  0
  2 11  1  0
  2 12  1  0
  3 13  1  0
  3 14  1  0
  4 15  1  0
  5 16  1  0
  5 17  1  0
  6 18  1  0
  6 19  1  0
  7 20  1  0
  7 21  1  0
  8 22  1  0
  8 23  1  0
M  END
