
     RDKit          3D

 23 24  0  0  0  0  0  0  0  0999 V2000
    3.7519    0.7791   -0.4986 O   0  0  0  0  0  0  0  0  0  0  0  0
    2.6833    0.1492    0.1445 C   0  0  0  0  0  0  0  0  0  0  0  0
    1.4618    0.0793   -0.7832 C   0  0  0  0  0  0  0  0  0  0  0  0
    0.3725   -0.6022   -0.0267 C   0  0  0  0  0  0  0  0  0  0  0  0
   -0.0383    0.1229    1.2649 C   0  0  0  0  0  0  0  0  0  0  0  0
   -0.9598   -0.0829    0.1735 C   0  0  0  0  0  0  0  0  0  0  0  0
   -2.1965   -0.9034    0.2125 C   0  0  0  0  0  0  0  0  0  0  0  0
   -2.6933   -0.1002   -0.9944 C   0  0  0  0  0  0  0  0  0  0  0  0
   -1.6374    0.9472   -0.6259 C   0  0  0  0  0  0  0  0  0  0  0  0
    4.5795    0.2376   -0.3001 H   0  0  0  0  0  0  0  0  0  0  0  0
    2.9678   -0.8735    0.4544 H   0  0  0  0  0  0  0  0  0  0  0  0
    2.3714    0.7055    1.0695 H   0  0  0  0  0  0  0  0  0  0  0  0
    1.1285    1.0915   -1.0583 H   0  0  0  0  0  0  0  0  0  0  0  0
    1.7347   -0.4483   -1.7030 H   0  0  0  0  0  0  0  0  0  0  0  0
    0.4997   -1.7198    0.0604 H   0  0  0  0  0  0  0  0  0  0  0  0
   -0.0543   -0.5006    2.1873 H   0  0  0  0  0  0  0  0  0  0  0  0
    0.3623    1.1330    1.4351 H   0  0  0  0  0  0  0  0  0  0  0  0
   -2.0129   -1.9852   -0.0304 H   0  0  0  0  0  0  0  0  0  0  0  0
   -2.8049   -0.7485    1.1217 H   0  0  0  0  0  0  0  0  0  0  0  0
   -2.4852   -0.6178   -1.9443 H   0  0  0  0  0  0  0  0  0  0  0  0
   -3.7269    0.2362   -0.9178 H   0  0  0  0  0  0  0  0  0  0  0  0
   -1.1358    1.3378   -1.5322 H   0  0  0  0  0  0  0  0  0  0  0  0
   -2.1680    1.7632   -0.0583 H   0  0  0  0  0  0  0  0  0  0  0  0
  1  2  1  0
  2  3  1  0
  3  4  1  0
  4  5  1  0
  5  6  1  0
  6  7  1  0
  7  8  1  0
  8  9  1  0
  6  4  1  0
  9  6  1  0
  1 10  1  0
  2 11  1  0
  2 12  1  0
  3 13  1  0
  3 14  1  0
  4 15  1  0
  5 16  1  0
  5 17  1  0
  7 18  1  0
  7 19  1  0
  8 20  1  0
  8 21  1  0
  9 22  1  0
  9 23  1  0
M  END
