
     RDKit          3D

 22 21  0  0  0  0  0  0  0  0999 V2000
    3.3527   -0.6547    0.1677 O   0  0  0  0  0  0  0  0  0  0  0  0
    2.9318   -0.0441   -1.0111 C   0  0  0  0  0  0  0  0  0  0  0  0
    1.6506    0.7521   -0.8049 C   0  0  0  0  0  0  0  0  0  0  0  0
    0.6041   -0.2248   -0.3338 C   0  0  0  0  0  0  0  0  0  0  0  0
   -0.7360    0.4362   -0.0861 C   0  0  0  0  0  0  0  0  0  0  0  0
   -1.6755   -0.6317    0.3723 C   0  0  0  0  0  0  0  0  0  0  0  0
   -3.0588   -0.1633    0.6676 C   0  0  0  0  0  0  0  0  0  0  0  0
   -3.1811    0.7786    1.6361 O   0  0  0  0  0  0  0  0  0  0  0  0
    3.9283   -1.4351   -0.0842 H   0  0  0  0  0  0  0  0  0  0  0  0
    3.7340    0.6059   -1.4138 H   0  0  0  0  0  0  0  0  0  0  0  0
    2.7552   -0.8316   -1.7578 H   0  0  0  0  0  0  0  0  0  0  0  0
    1.3495    1.1370   -1.7862 H   0  0  0  0  0  0  0  0  0  0  0  0
    1.8065    1.5668   -0.0821 H   0  0  0  0  0  0  0  0  0  0  0  0
    0.4376   -0.9568   -1.1706 H   0  0  0  0  0  0  0  0  0  0  0  0
    0.9423   -0.8175    0.5328 H   0  0  0  0  0  0  0  0  0  0  0  0
   -1.0414    0.8852   -1.0641 H   0  0  0  0  0  0  0  0  0  0  0  0
   -0.5868    1.2327    0.6826 H   0  0  0  0  0  0  0  0  0  0  0  0
   -1.7181   -1.4059   -0.4221 H   0  0  0  0  0  0  0  0  0  0  0  0
   -1.2353   -1.1006    1.2774 H   0  0  0  0  0  0  0  0  0  0  0  0
   -3.6640   -1.0499    0.9491 H   0  0  0  0  0  0  0  0  0  0  0  0
   -3.5308    0.2131   -0.2869 H   0  0  0  0  0  0  0  0  0  0  0  0
   -3.0648    1.7084    1.3608 H   0  0  0  0  0  0  0  0  0  0  0  0
  1  2  1  0
  2  3  1  0
  3  4  1  0
  4  5  1  0
  5  6  1  0
  6  7  1  0
  7  8  1  0
  1  9  1  0
  2 10  1  0
  2 11  1  0
  3 12  1  0
  3 13  1  0
  4 14  1  0
  4 15  1  0
  5 16  1  0
  5 17  1  0
  6 18  1  0
  6 19  1  0
  7 20  1  0
  7 21  1  0
  8 22  1  0
M  END
