
     RDKit          3D

 21 22  0  0  0  0  0  0  0  0999 V2000
    3.2691    0.6302    0.7662 O   0  0  0  0  0  0  0  0  0  0  0  0
    2.2520    0.4153   -0.1378 C   0  0  0  0  0  0  0  0  0  0  0  0
    1.0958   -0.2928    0.5615 C   0  0  0  0  0  0  0  0  0  0  0  0
    0.0244   -0.4987   -0.4674 C   0  0  0  0  0  0  0  0  0  0  0  0
   -1.2282   -1.1942    0.0234 C   0  0  0  0  0  0  0  0  0  0  0  0
   -1.6085   -0.3616    1.1801 C   0  0  0  0  0  0  0  0  0  0  0  0
   -1.4040    0.8985    0.7158 C   0  0  0  0  0  0  0  0  0  0  0  0
   -0.9318    0.6603   -0.6582 C   0  0  0  0  0  0  0  0  0  0  0  0
   -1.9165   -0.4297   -1.1171 C   0  0  0  0  0  0  0  0  0  0  0  0
    3.5353    1.6004    0.6864 H   0  0  0  0  0  0  0  0  0  0  0  0
    1.8385    1.3354   -0.5830 H   0  0  0  0  0  0  0  0  0  0  0  0
    2.5692   -0.2410   -0.9895 H   0  0  0  0  0  0  0  0  0  0  0  0
    1.4921   -1.2776    0.8857 H   0  0  0  0  0  0  0  0  0  0  0  0
    0.7613    0.2439    1.4500 H   0  0  0  0  0  0  0  0  0  0  0  0
    0.4122   -0.8259   -1.4404 H   0  0  0  0  0  0  0  0  0  0  0  0
   -1.2889   -2.2376    0.0399 H   0  0  0  0  0  0  0  0  0  0  0  0
   -1.9642   -0.6503    2.1635 H   0  0  0  0  0  0  0  0  0  0  0  0
   -1.5590    1.8297    1.2490 H   0  0  0  0  0  0  0  0  0  0  0  0
   -0.7031    1.4402   -1.3213 H   0  0  0  0  0  0  0  0  0  0  0  0
   -2.9738   -0.1842   -0.9167 H   0  0  0  0  0  0  0  0  0  0  0  0
   -1.6719   -0.8602   -2.0902 H   0  0  0  0  0  0  0  0  0  0  0  0
  1  2  1  0
  2  3  1  0
  3  4  1  0
  4  5  1  0
  5  6  1  0
  6  7  2  0
  7  8  1  0
  8  9  1  0
  8  4  1  0
  9  5  1  0
  1 10  1  0
  2 11  1  0
  2 12  1  0
  3 13  1  0
  3 14  1  0
  4 15  1  0
  5 16  1  0
  6 17  1  0
  7 18  1  0
  8 19  1  0
  9 20  1  0
  9 21  1  0
M  END
