
     RDKit          3D

 23 23  0  0  0  0  0  0  0  0999 V2000
   -3.7686   -0.4683    0.5043 O   0  0  0  0  0  0  0  0  0  0  0  0
   -2.7819   -0.0714   -0.3978 C   0  0  0  0  0  0  0  0  0  0  0  0
   -1.7195    0.6428    0.3744 C   0  0  0  0  0  0  0  0  0  0  0  0
   -0.5811    1.1303   -0.4868 C   0  0  0  0  0  0  0  0  0  0  0  0
    0.0771    0.1433   -1.1547 O   0  0  0  0  0  0  0  0  0  0  0  0
    0.6569   -0.8174   -0.3380 C   0  0  0  0  0  0  0  0  0  0  0  0
    1.6683   -0.2727    0.6066 C   0  0  0  0  0  0  0  0  0  0  0  0
    2.8847    0.4311    0.1381 C   0  0  0  0  0  0  0  0  0  0  0  0
    3.0016   -1.0078    0.6175 C   0  0  0  0  0  0  0  0  0  0  0  0
   -4.6597   -0.0955    0.2479 H   0  0  0  0  0  0  0  0  0  0  0  0
   -2.4072   -1.0144   -0.8710 H   0  0  0  0  0  0  0  0  0  0  0  0
   -3.2361    0.5481   -1.1903 H   0  0  0  0  0  0  0  0  0  0  0  0
   -2.2029    1.4836    0.9120 H   0  0  0  0  0  0  0  0  0  0  0  0
   -1.3492   -0.0469    1.1644 H   0  0  0  0  0  0  0  0  0  0  0  0
   -1.0339    1.8090   -1.2499 H   0  0  0  0  0  0  0  0  0  0  0  0
    0.1009    1.7408    0.1221 H   0  0  0  0  0  0  0  0  0  0  0  0
    1.1344   -1.5511   -1.0165 H   0  0  0  0  0  0  0  0  0  0  0  0
   -0.1105   -1.3756    0.2383 H   0  0  0  0  0  0  0  0  0  0  0  0
    1.2704   -0.0669    1.6443 H   0  0  0  0  0  0  0  0  0  0  0  0
    3.3524    1.1513    0.8057 H   0  0  0  0  0  0  0  0  0  0  0  0
    2.9882    0.6470   -0.9384 H   0  0  0  0  0  0  0  0  0  0  0  0
    3.2134   -1.7217   -0.2007 H   0  0  0  0  0  0  0  0  0  0  0  0
    3.5021   -1.2175    1.5624 H   0  0  0  0  0  0  0  0  0  0  0  0
  1  2  1  0
  2  3  1  0
  3  4  1  0
  4  5  1  0
  5  6  1  0
  6  7  1  0
  7  8  1  0
  8  9  1  0
  9  7  1  0
  1 10  1  0
  2 11  1  0
  2 12  1  0
  3 13  1  0
  3 14  1  0
  4 15  1  0
  4 16  1  0
  6 17  1  0
  6 18  1  0
  7 19  1  0
  8 20  1  0
  8 21  1  0
  9 22  1  0
  9 23  1  0
M  END
