
     RDKit          3D

 21 21  0  0  0  0  0  0  0  0999 V2000
    3.3407    0.2139   -0.6340 O   0  0  0  0  0  0  0  0  0  0  0  0
    2.2277    0.5117    0.1511 C   0  0  0  0  0  0  0  0  0  0  0  0
    1.0679   -0.3417   -0.2939 C   0  0  0  0  0  0  0  0  0  0  0  0
   -0.1820   -0.1034    0.4835 C   0  0  0  0  0  0  0  0  0  0  0  0
   -1.2973   -0.9944   -0.0207 C   0  0  0  0  0  0  0  0  0  0  0  0
   -1.8060   -1.8863    0.9167 O   0  0  0  0  0  0  0  0  0  0  0  0
   -2.1673    0.1933   -0.2981 C   0  0  0  0  0  0  0  0  0  0  0  0
   -0.9997    1.0902    0.0976 C   0  0  0  0  0  0  0  0  0  0  0  0
   -0.4154    1.7723   -0.9621 O   0  0  0  0  0  0  0  0  0  0  0  0
    3.7862   -0.6319   -0.3318 H   0  0  0  0  0  0  0  0  0  0  0  0
    1.9883    1.5908   -0.0612 H   0  0  0  0  0  0  0  0  0  0  0  0
    2.4662    0.4116    1.2047 H   0  0  0  0  0  0  0  0  0  0  0  0
    1.3572   -1.4159   -0.1984 H   0  0  0  0  0  0  0  0  0  0  0  0
    0.8552   -0.1547   -1.3591 H   0  0  0  0  0  0  0  0  0  0  0  0
   -0.0883   -0.2072    1.5905 H   0  0  0  0  0  0  0  0  0  0  0  0
   -1.0613   -1.5463   -0.9548 H   0  0  0  0  0  0  0  0  0  0  0  0
   -1.1713   -2.6439    0.9598 H   0  0  0  0  0  0  0  0  0  0  0  0
   -3.0464    0.2623    0.3731 H   0  0  0  0  0  0  0  0  0  0  0  0
   -2.4187    0.3164   -1.3871 H   0  0  0  0  0  0  0  0  0  0  0  0
   -1.3187    1.7497    0.9280 H   0  0  0  0  0  0  0  0  0  0  0  0
   -1.1170    1.8136   -1.6860 H   0  0  0  0  0  0  0  0  0  0  0  0
  1  2  1  0
  2  3  1  0
  3  4  1  0
  4  5  1  0
  5  6  1  0
  5  7  1  0
  7  8  1  0
  8  9  1  0
  8  4  1  0
  1 10  1  0
  2 11  1  0
  2 12  1  0
  3 13  1  0
  3 14  1  0
  4 15  1  0
  5 16  1  0
  6 17  1  0
  7 18  1  0
  7 19  1  0
  8 20  1  0
  9 21  1  0
M  END
