
     RDKit          3D

 23 22  0  0  0  0  0  0  0  0999 V2000
   -3.8206    0.0526   -1.3390 O   0  0  0  0  0  0  0  0  0  0  0  0
   -3.7434   -0.0538    0.0474 C   0  0  0  0  0  0  0  0  0  0  0  0
   -2.3965    0.4620    0.5380 C   0  0  0  0  0  0  0  0  0  0  0  0
   -1.2468   -0.3221   -0.0556 C   0  0  0  0  0  0  0  0  0  0  0  0
   -0.0758    0.2105    0.4407 O   0  0  0  0  0  0  0  0  0  0  0  0
    1.0599   -0.4270   -0.0323 C   0  0  0  0  0  0  0  0  0  0  0  0
    2.2572    0.2839    0.6125 C   0  0  0  0  0  0  0  0  0  0  0  0
    3.5265   -0.3699    0.1324 C   0  0  0  0  0  0  0  0  0  0  0  0
    4.5979    0.2929    0.7315 O   0  0  0  0  0  0  0  0  0  0  0  0
   -3.4808    0.9650   -1.5953 H   0  0  0  0  0  0  0  0  0  0  0  0
   -3.7998   -1.1155    0.3639 H   0  0  0  0  0  0  0  0  0  0  0  0
   -4.5090    0.5735    0.5636 H   0  0  0  0  0  0  0  0  0  0  0  0
   -2.3656    0.5412    1.6254 H   0  0  0  0  0  0  0  0  0  0  0  0
   -2.3078    1.5012    0.1359 H   0  0  0  0  0  0  0  0  0  0  0  0
   -1.3384   -1.4068    0.0915 H   0  0  0  0  0  0  0  0  0  0  0  0
   -1.2497   -0.1126   -1.1643 H   0  0  0  0  0  0  0  0  0  0  0  0
    1.1634   -0.3898   -1.1321 H   0  0  0  0  0  0  0  0  0  0  0  0
    1.0669   -1.4901    0.2813 H   0  0  0  0  0  0  0  0  0  0  0  0
    2.2898    1.3421    0.3128 H   0  0  0  0  0  0  0  0  0  0  0  0
    2.1613    0.2391    1.7168 H   0  0  0  0  0  0  0  0  0  0  0  0
    3.5950   -0.2141   -0.9599 H   0  0  0  0  0  0  0  0  0  0  0  0
    3.5513   -1.4543    0.3414 H   0  0  0  0  0  0  0  0  0  0  0  0
    5.0651    0.8920    0.0864 H   0  0  0  0  0  0  0  0  0  0  0  0
  1  2  1  0
  2  3  1  0
  3  4  1  0
  4  5  1  0
  5  6  1  0
  6  7  1  0
  7  8  1  0
  8  9  1  0
  1 10  1  0
  2 11  1  0
  2 12  1  0
  3 13  1  0
  3 14  1  0
  4 15  1  0
  4 16  1  0
  6 17  1  0
  6 18  1  0
  7 19  1  0
  7 20  1  0
  8 21  1  0
  8 22  1  0
  9 23  1  0
M  END
