
     RDKit          3D

 21 21  0  0  0  0  0  0  0  0999 V2000
    2.7025    0.3831    1.0231 O   0  0  0  0  0  0  0  0  0  0  0  0
    2.4674   -0.5108   -0.0218 C   0  0  0  0  0  0  0  0  0  0  0  0
    1.2960   -0.0330   -0.8539 C   0  0  0  0  0  0  0  0  0  0  0  0
    0.0838    0.0524    0.0005 C   0  0  0  0  0  0  0  0  0  0  0  0
   -1.0686    0.5374   -0.8812 C   0  0  0  0  0  0  0  0  0  0  0  0
   -2.0999    0.9568    0.1745 C   0  0  0  0  0  0  0  0  0  0  0  0
   -2.3431   -0.0588    1.0527 O   0  0  0  0  0  0  0  0  0  0  0  0
   -1.6103   -1.1818    0.9750 C   0  0  0  0  0  0  0  0  0  0  0  0
   -0.3373   -1.1264    0.5416 O   0  0  0  0  0  0  0  0  0  0  0  0
    2.9251    1.2667    0.6411 H   0  0  0  0  0  0  0  0  0  0  0  0
    2.2581   -1.5189    0.3759 H   0  0  0  0  0  0  0  0  0  0  0  0
    3.3560   -0.4817   -0.6861 H   0  0  0  0  0  0  0  0  0  0  0  0
    1.1886   -0.6484   -1.7507 H   0  0  0  0  0  0  0  0  0  0  0  0
    1.5537    0.9969   -1.1916 H   0  0  0  0  0  0  0  0  0  0  0  0
    0.2746    0.7706    0.8162 H   0  0  0  0  0  0  0  0  0  0  0  0
   -0.7879    1.3731   -1.5179 H   0  0  0  0  0  0  0  0  0  0  0  0
   -1.4951   -0.3227   -1.4434 H   0  0  0  0  0  0  0  0  0  0  0  0
   -2.9758    1.3602   -0.3385 H   0  0  0  0  0  0  0  0  0  0  0  0
   -1.6123    1.7833    0.7405 H   0  0  0  0  0  0  0  0  0  0  0  0
   -2.1704   -1.9340    0.3437 H   0  0  0  0  0  0  0  0  0  0  0  0
   -1.6051   -1.6638    2.0001 H   0  0  0  0  0  0  0  0  0  0  0  0
  1  2  1  0
  2  3  1  0
  3  4  1  0
  4  5  1  0
  5  6  1  0
  6  7  1  0
  7  8  1  0
  8  9  1  0
  9  4  1  0
  1 10  1  0
  2 11  1  0
  2 12  1  0
  3 13  1  0
  3 14  1  0
  4 15  1  0
  5 16  1  0
  5 17  1  0
  6 18  1  0
  6 19  1  0
  8 20  1  0
  8 21  1  0
M  END
