
     RDKit          3D

 23 23  0  0  0  0  0  0  0  0999 V2000
    3.6631   -0.0035   -1.4066 O   0  0  0  0  0  0  0  0  0  0  0  0
    2.7833   -0.8127   -0.6809 C   0  0  0  0  0  0  0  0  0  0  0  0
    1.5584    0.0277   -0.4201 C   0  0  0  0  0  0  0  0  0  0  0  0
    0.5038   -0.7344    0.3705 C   0  0  0  0  0  0  0  0  0  0  0  0
   -0.6565    0.2116    0.5604 C   0  0  0  0  0  0  0  0  0  0  0  0
   -1.2575    0.6847   -0.7149 C   0  0  0  0  0  0  0  0  0  0  0  0
   -2.6216    1.1367   -0.2513 C   0  0  0  0  0  0  0  0  0  0  0  0
   -2.9348    0.4720    0.8556 C   0  0  0  0  0  0  0  0  0  0  0  0
   -1.8415   -0.4657    1.2334 C   0  0  0  0  0  0  0  0  0  0  0  0
    4.0236    0.6749   -0.7536 H   0  0  0  0  0  0  0  0  0  0  0  0
    2.5223   -1.7313   -1.2495 H   0  0  0  0  0  0  0  0  0  0  0  0
    3.2542   -1.0563    0.3054 H   0  0  0  0  0  0  0  0  0  0  0  0
    1.1503    0.4271   -1.3655 H   0  0  0  0  0  0  0  0  0  0  0  0
    1.8879    0.9008    0.1853 H   0  0  0  0  0  0  0  0  0  0  0  0
    0.9324   -1.0446    1.3261 H   0  0  0  0  0  0  0  0  0  0  0  0
    0.2415   -1.6181   -0.2146 H   0  0  0  0  0  0  0  0  0  0  0  0
   -0.3628    1.0632    1.2010 H   0  0  0  0  0  0  0  0  0  0  0  0
   -0.7058    1.5094   -1.2039 H   0  0  0  0  0  0  0  0  0  0  0  0
   -1.4417   -0.1393   -1.4180 H   0  0  0  0  0  0  0  0  0  0  0  0
   -3.1807    1.8884   -0.7988 H   0  0  0  0  0  0  0  0  0  0  0  0
   -3.8663    0.6204    1.3807 H   0  0  0  0  0  0  0  0  0  0  0  0
   -1.6979   -0.5492    2.3171 H   0  0  0  0  0  0  0  0  0  0  0  0
   -1.9537   -1.4619    0.7424 H   0  0  0  0  0  0  0  0  0  0  0  0
  1  2  1  0
  2  3  1  0
  3  4  1  0
  4  5  1  0
  5  6  1  0
  6  7  1  0
  7  8  2  0
  8  9  1  0
  9  5  1  0
  1 10  1  0
  2 11  1  0
  2 12  1  0
  3 13  1  0
  3 14  1  0
  4 15  1  0
  4 16  1  0
  5 17  1  0
  6 18  1  0
  6 19  1  0
  7 20  1  0
  8 21  1  0
  9 22  1  0
  9 23  1  0
M  END
