
     RDKit          3D

 19 20  0  0  0  0  0  0  0  0999 V2000
    1.7903    0.9985    0.9511 O   0  0  0  0  0  0  0  0  0  0  0  0
    1.9381   -0.2823    0.4231 C   0  0  0  0  0  0  0  0  0  0  0  0
    1.2669   -0.3790   -0.9156 C   0  0  0  0  0  0  0  0  0  0  0  0
   -0.2093   -0.0909   -0.8480 C   0  0  0  0  0  0  0  0  0  0  0  0
   -0.4737    1.1594   -0.3804 O   0  0  0  0  0  0  0  0  0  0  0  0
   -1.6444    1.1588    0.3289 C   0  0  0  0  0  0  0  0  0  0  0  0
   -2.0578   -0.2492    0.5944 C   0  0  0  0  0  0  0  0  0  0  0  0
   -2.3430   -1.1404   -0.3997 O   0  0  0  0  0  0  0  0  0  0  0  0
   -0.9784   -1.0600   -0.0273 C   0  0  0  0  0  0  0  0  0  0  0  0
    2.4148    1.5839    0.4365 H   0  0  0  0  0  0  0  0  0  0  0  0
    1.5438   -1.0575    1.1079 H   0  0  0  0  0  0  0  0  0  0  0  0
    3.0141   -0.5226    0.2706 H   0  0  0  0  0  0  0  0  0  0  0  0
    1.4558   -1.3655   -1.3663 H   0  0  0  0  0  0  0  0  0  0  0  0
    1.7327    0.3787   -1.5784 H   0  0  0  0  0  0  0  0  0  0  0  0
   -0.5829   -0.1399   -1.9122 H   0  0  0  0  0  0  0  0  0  0  0  0
   -2.4448    1.7932   -0.0931 H   0  0  0  0  0  0  0  0  0  0  0  0
   -1.4142    1.6220    1.3356 H   0  0  0  0  0  0  0  0  0  0  0  0
   -2.4807   -0.5039    1.5846 H   0  0  0  0  0  0  0  0  0  0  0  0
   -0.5273   -1.9034    0.4881 H   0  0  0  0  0  0  0  0  0  0  0  0
  1  2  1  0
  2  3  1  0
  3  4  1  0
  4  5  1  0
  5  6  1  0
  6  7  1  0
  7  8  1  0
  8  9  1  0
  9  4  1  0
  9  7  1  0
  1 10  1  0
  2 11  1  0
  2 12  1  0
  3 13  1  0
  3 14  1  0
  4 15  1  0
  6 16  1  0
  6 17  1  0
  7 18  1  0
  9 19  1  0
M  END
