
     RDKit          3D

 21 21  0  0  0  0  0  0  0  0999 V2000
   -2.9106   -1.1567   -0.0503 O   0  0  0  0  0  0  0  0  0  0  0  0
   -2.3797   -0.1469   -0.8504 C   0  0  0  0  0  0  0  0  0  0  0  0
   -0.8648   -0.2434   -0.7873 C   0  0  0  0  0  0  0  0  0  0  0  0
   -0.4685   -0.0642    0.6505 C   0  0  0  0  0  0  0  0  0  0  0  0
   -0.9171    1.1919    1.0599 O   0  0  0  0  0  0  0  0  0  0  0  0
    1.0132   -0.1100    0.8868 C   0  0  0  0  0  0  0  0  0  0  0  0
    1.9223    0.8357    0.2565 C   0  0  0  0  0  0  0  0  0  0  0  0
    1.9457   -0.6346   -0.1506 C   0  0  0  0  0  0  0  0  0  0  0  0
    3.1044   -1.2999    0.2057 O   0  0  0  0  0  0  0  0  0  0  0  0
   -3.7953   -0.8776    0.2476 H   0  0  0  0  0  0  0  0  0  0  0  0
   -2.7700   -0.1642   -1.8743 H   0  0  0  0  0  0  0  0  0  0  0  0
   -2.6292    0.8734   -0.4381 H   0  0  0  0  0  0  0  0  0  0  0  0
   -0.6097   -1.2640   -1.1537 H   0  0  0  0  0  0  0  0  0  0  0  0
   -0.4824    0.5507   -1.4523 H   0  0  0  0  0  0  0  0  0  0  0  0
   -0.9958   -0.8398    1.2428 H   0  0  0  0  0  0  0  0  0  0  0  0
   -0.2501    1.8771    0.7792 H   0  0  0  0  0  0  0  0  0  0  0  0
    1.2803   -0.4430    1.9226 H   0  0  0  0  0  0  0  0  0  0  0  0
    1.6594    1.5047   -0.5728 H   0  0  0  0  0  0  0  0  0  0  0  0
    2.7866    1.2226    0.8559 H   0  0  0  0  0  0  0  0  0  0  0  0
    1.5074   -0.9342   -1.1110 H   0  0  0  0  0  0  0  0  0  0  0  0
    3.8538   -0.6458    0.3333 H   0  0  0  0  0  0  0  0  0  0  0  0
  1  2  1  0
  2  3  1  0
  3  4  1  0
  4  5  1  0
  4  6  1  0
  6  7  1  0
  7  8  1  0
  8  9  1  0
  8  6  1  0
  1 10  1  0
  2 11  1  0
  2 12  1  0
  3 13  1  0
  3 14  1  0
  4 15  1  0
  5 16  1  0
  6 17  1  0
  7 18  1  0
  7 19  1  0
  8 20  1  0
  9 21  1  0
M  END
