
     RDKit          3D

 18 18  0  0  0  0  0  0  0  0999 V2000
   -2.4560    1.1859   -0.7171 O   0  0  0  0  0  0  0  0  0  0  0  0
   -2.2103    0.2301    0.2828 C   0  0  0  0  0  0  0  0  0  0  0  0
   -1.0708   -0.6708   -0.0938 C   0  0  0  0  0  0  0  0  0  0  0  0
    0.2226    0.0650   -0.3096 C   0  0  0  0  0  0  0  0  0  0  0  0
    1.2583   -0.9370   -0.6739 C   0  0  0  0  0  0  0  0  0  0  0  0
    2.3980   -0.4479   -0.2002 C   0  0  0  0  0  0  0  0  0  0  0  0
    2.0686    0.8684    0.4645 C   0  0  0  0  0  0  0  0  0  0  0  0
    0.7371    0.6190    0.8471 O   0  0  0  0  0  0  0  0  0  0  0  0
   -2.9887    0.7717   -1.4487 H   0  0  0  0  0  0  0  0  0  0  0  0
   -3.1253   -0.3964    0.3273 H   0  0  0  0  0  0  0  0  0  0  0  0
   -2.1014    0.6947    1.2770 H   0  0  0  0  0  0  0  0  0  0  0  0
   -1.3377   -1.1793   -1.0374 H   0  0  0  0  0  0  0  0  0  0  0  0
   -0.9241   -1.4132    0.6886 H   0  0  0  0  0  0  0  0  0  0  0  0
    0.1736    0.7906   -1.1421 H   0  0  0  0  0  0  0  0  0  0  0  0
    1.1335   -1.8826   -1.2159 H   0  0  0  0  0  0  0  0  0  0  0  0
    3.3592   -0.9309   -0.2933 H   0  0  0  0  0  0  0  0  0  0  0  0
    2.1330    1.7075   -0.2217 H   0  0  0  0  0  0  0  0  0  0  0  0
    2.7303    0.9251    1.3443 H   0  0  0  0  0  0  0  0  0  0  0  0
  1  2  1  0
  2  3  1  0
  3  4  1  0
  4  5  1  0
  5  6  2  0
  6  7  1  0
  7  8  1  0
  8  4  1  0
  1  9  1  0
  2 10  1  0
  2 11  1  0
  3 12  1  0
  3 13  1  0
  4 14  1  0
  5 15  1  0
  6 16  1  0
  7 17  1  0
  7 18  1  0
M  END
