
     RDKit          3D

 23 24  0  0  0  0  0  0  0  0999 V2000
    2.2224    1.3538    0.1595 O   0  0  0  0  0  0  0  0  0  0  0  0
    2.1296    0.3220   -0.7444 C   0  0  0  0  0  0  0  0  0  0  0  0
    1.2722   -0.8179   -0.3085 C   0  0  0  0  0  0  0  0  0  0  0  0
   -0.1340   -0.5257   -0.0255 C   0  0  0  0  0  0  0  0  0  0  0  0
   -0.9749    0.0351   -1.1433 C   0  0  0  0  0  0  0  0  0  0  0  0
   -1.0775    1.3268   -0.3250 C   0  0  0  0  0  0  0  0  0  0  0  0
   -0.5617    0.5602    0.8487 C   0  0  0  0  0  0  0  0  0  0  0  0
   -1.6434   -0.3476    1.4208 C   0  0  0  0  0  0  0  0  0  0  0  0
   -0.8263   -1.5203    0.8606 C   0  0  0  0  0  0  0  0  0  0  0  0
    2.2605    2.2221   -0.3154 H   0  0  0  0  0  0  0  0  0  0  0  0
    1.7784    0.6681   -1.7390 H   0  0  0  0  0  0  0  0  0  0  0  0
    3.1573   -0.0800   -0.9004 H   0  0  0  0  0  0  0  0  0  0  0  0
    1.3193   -1.5846   -1.1210 H   0  0  0  0  0  0  0  0  0  0  0  0
    1.7331   -1.2960    0.5805 H   0  0  0  0  0  0  0  0  0  0  0  0
   -1.9837   -0.4235   -1.2425 H   0  0  0  0  0  0  0  0  0  0  0  0
   -0.3958    0.1240   -2.0653 H   0  0  0  0  0  0  0  0  0  0  0  0
   -2.1084    1.6772   -0.1629 H   0  0  0  0  0  0  0  0  0  0  0  0
   -0.4126    2.0778   -0.7588 H   0  0  0  0  0  0  0  0  0  0  0  0
    0.0898    1.0383    1.5492 H   0  0  0  0  0  0  0  0  0  0  0  0
   -1.6950   -0.3281    2.5276 H   0  0  0  0  0  0  0  0  0  0  0  0
   -2.6061   -0.3049    0.8924 H   0  0  0  0  0  0  0  0  0  0  0  0
   -0.1258   -1.8836    1.6378 H   0  0  0  0  0  0  0  0  0  0  0  0
   -1.4173   -2.2930    0.3749 H   0  0  0  0  0  0  0  0  0  0  0  0
  1  2  1  0
  2  3  1  0
  3  4  1  0
  4  5  1  0
  5  6  1  0
  6  7  1  0
  7  8  1  0
  8  9  1  0
  7  4  1  0
  9  4  1  0
  1 10  1  0
  2 11  1  0
  2 12  1  0
  3 13  1  0
  3 14  1  0
  5 15  1  0
  5 16  1  0
  6 17  1  0
  6 18  1  0
  7 19  1  0
  8 20  1  0
  8 21  1  0
  9 22  1  0
  9 23  1  0
M  END
