
     RDKit          3D

 21 22  0  0  0  0  0  0  0  0999 V2000
    3.6821    0.3253   -0.2738 O   0  0  0  0  0  0  0  0  0  0  0  0
    2.3760    0.8140   -0.0995 C   0  0  0  0  0  0  0  0  0  0  0  0
    1.5032   -0.3728    0.2206 C   0  0  0  0  0  0  0  0  0  0  0  0
    0.0898   -0.0141    0.4321 C   0  0  0  0  0  0  0  0  0  0  0  0
   -0.4323    1.1929    0.3658 C   0  0  0  0  0  0  0  0  0  0  0  0
   -1.9211    1.0396    0.6549 C   0  0  0  0  0  0  0  0  0  0  0  0
   -2.0513   -0.2405   -0.1196 C   0  0  0  0  0  0  0  0  0  0  0  0
   -2.0175   -1.6049    0.1736 C   0  0  0  0  0  0  0  0  0  0  0  0
   -0.9604   -0.9352    0.7892 C   0  0  0  0  0  0  0  0  0  0  0  0
    3.6991   -0.6582   -0.3606 H   0  0  0  0  0  0  0  0  0  0  0  0
    2.0745    1.3141   -1.0180 H   0  0  0  0  0  0  0  0  0  0  0  0
    2.3965    1.5104    0.7424 H   0  0  0  0  0  0  0  0  0  0  0  0
    1.5276   -1.1052   -0.6268 H   0  0  0  0  0  0  0  0  0  0  0  0
    1.9350   -0.9269    1.0879 H   0  0  0  0  0  0  0  0  0  0  0  0
    0.0488    2.1150    0.1563 H   0  0  0  0  0  0  0  0  0  0  0  0
   -1.9971    0.8768    1.7407 H   0  0  0  0  0  0  0  0  0  0  0  0
   -2.4965    1.8664    0.2559 H   0  0  0  0  0  0  0  0  0  0  0  0
   -1.7130    0.0039   -1.1782 H   0  0  0  0  0  0  0  0  0  0  0  0
   -2.8643   -2.0370    0.7800 H   0  0  0  0  0  0  0  0  0  0  0  0
   -1.7612   -2.3591   -0.6270 H   0  0  0  0  0  0  0  0  0  0  0  0
   -1.1177   -0.8046    1.9170 H   0  0  0  0  0  0  0  0  0  0  0  0
  1  2  1  0
  2  3  1  0
  3  4  1  0
  4  5  2  0
  5  6  1  0
  6  7  1  0
  7  8  1  0
  8  9  1  0
  9  4  1  0
  9  7  1  0
  1 10  1  0
  2 11  1  0
  2 12  1  0
  3 13  1  0
  3 14  1  0
  5 15  1  0
  6 16  1  0
  6 17  1  0
  7 18  1  0
  8 19  1  0
  8 20  1  0
  9 21  1  0
M  END
