
     RDKit          3D

 19 20  0  0  0  0  0  0  0  0999 V2000
   -3.1854    0.4796    0.6177 O   0  0  0  0  0  0  0  0  0  0  0  0
   -2.1258   -0.1499   -0.0263 C   0  0  0  0  0  0  0  0  0  0  0  0
   -0.8628    0.1051    0.8025 C   0  0  0  0  0  0  0  0  0  0  0  0
    0.2660   -0.5726    0.1058 C   0  0  0  0  0  0  0  0  0  0  0  0
    0.5565   -0.1284   -1.2796 C   0  0  0  0  0  0  0  0  0  0  0  0
    1.5303    0.2107   -0.2279 C   0  0  0  0  0  0  0  0  0  0  0  0
    1.6771    1.4550    0.3066 O   0  0  0  0  0  0  0  0  0  0  0  0
    2.2944   -0.9742    0.3243 C   0  0  0  0  0  0  0  0  0  0  0  0
    1.0618   -1.4783    0.7610 O   0  0  0  0  0  0  0  0  0  0  0  0
   -3.0626    1.4562    0.5998 H   0  0  0  0  0  0  0  0  0  0  0  0
   -2.0033    0.2874   -1.0419 H   0  0  0  0  0  0  0  0  0  0  0  0
   -2.3333   -1.2365   -0.1010 H   0  0  0  0  0  0  0  0  0  0  0  0
   -1.0583   -0.2526    1.8207 H   0  0  0  0  0  0  0  0  0  0  0  0
   -0.6970    1.1993    0.7637 H   0  0  0  0  0  0  0  0  0  0  0  0
    0.9367   -0.8613   -2.0437 H   0  0  0  0  0  0  0  0  0  0  0  0
   -0.0504    0.6682   -1.6975 H   0  0  0  0  0  0  0  0  0  0  0  0
    1.3485    2.1388   -0.2934 H   0  0  0  0  0  0  0  0  0  0  0  0
    3.0087   -0.7085    1.1005 H   0  0  0  0  0  0  0  0  0  0  0  0
    2.6988   -1.6382   -0.4912 H   0  0  0  0  0  0  0  0  0  0  0  0
  1  2  1  0
  2  3  1  0
  3  4  1  0
  4  5  1  0
  5  6  1  0
  6  7  1  0
  6  8  1  0
  8  9  1  0
  6  4  1  0
  9  4  1  0
  1 10  1  0
  2 11  1  0
  2 12  1  0
  3 13  1  0
  3 14  1  0
  5 15  1  0
  5 16  1  0
  7 17  1  0
  8 18  1  0
  8 19  1  0
M  END
