
     RDKit          3D

 21 22  0  0  0  0  0  0  0  0999 V2000
    3.5702   -0.5879   -0.1730 O   0  0  0  0  0  0  0  0  0  0  0  0
    2.2570   -0.4216   -0.5623 C   0  0  0  0  0  0  0  0  0  0  0  0
    1.4558    0.2986    0.5091 C   0  0  0  0  0  0  0  0  0  0  0  0
    0.0367    0.4805    0.0929 C   0  0  0  0  0  0  0  0  0  0  0  0
   -0.7432   -0.7613   -0.1921 C   0  0  0  0  0  0  0  0  0  0  0  0
   -2.1194   -0.2686   -0.5690 C   0  0  0  0  0  0  0  0  0  0  0  0
   -2.2373    0.8442    0.4929 C   0  0  0  0  0  0  0  0  0  0  0  0
   -0.9425    0.5116    1.2184 C   0  0  0  0  0  0  0  0  0  0  0  0
   -0.8863   -0.8996    1.2061 O   0  0  0  0  0  0  0  0  0  0  0  0
    3.6436   -1.1952    0.5954 H   0  0  0  0  0  0  0  0  0  0  0  0
    1.7988   -1.4326   -0.6756 H   0  0  0  0  0  0  0  0  0  0  0  0
    2.2049    0.0941   -1.5376 H   0  0  0  0  0  0  0  0  0  0  0  0
    1.9287    1.2954    0.6279 H   0  0  0  0  0  0  0  0  0  0  0  0
    1.4911   -0.2881    1.4248 H   0  0  0  0  0  0  0  0  0  0  0  0
   -0.1107    1.2302   -0.7089 H   0  0  0  0  0  0  0  0  0  0  0  0
   -0.3079   -1.5677   -0.7295 H   0  0  0  0  0  0  0  0  0  0  0  0
   -2.1973    0.1217   -1.5788 H   0  0  0  0  0  0  0  0  0  0  0  0
   -2.8795   -1.0228   -0.2950 H   0  0  0  0  0  0  0  0  0  0  0  0
   -2.1185    1.8285    0.0095 H   0  0  0  0  0  0  0  0  0  0  0  0
   -3.1230    0.7285    1.1092 H   0  0  0  0  0  0  0  0  0  0  0  0
   -0.7210    1.0121    2.1250 H   0  0  0  0  0  0  0  0  0  0  0  0
  1  2  1  0
  2  3  1  0
  3  4  1  0
  4  5  1  0
  5  6  1  0
  6  7  1  0
  7  8  1  0
  8  9  1  0
  8  4  1  0
  9  5  1  0
  1 10  1  0
  2 11  1  0
  2 12  1  0
  3 13  1  0
  3 14  1  0
  4 15  1  0
  5 16  1  0
  6 17  1  0
  6 18  1  0
  7 19  1  0
  7 20  1  0
  8 21  1  0
M  END
