
     RDKit          3D

 20 19  0  0  0  0  0  0  0  0999 V2000
    2.4774    1.3823   -0.2502 O   0  0  0  0  0  0  0  0  0  0  0  0
    2.3993    0.3077    0.6184 C   0  0  0  0  0  0  0  0  0  0  0  0
    1.2610   -0.6303    0.2715 C   0  0  0  0  0  0  0  0  0  0  0  0
   -0.0811    0.0799    0.3237 C   0  0  0  0  0  0  0  0  0  0  0  0
   -0.0201    1.1286   -0.6155 O   0  0  0  0  0  0  0  0  0  0  0  0
   -1.1347   -0.8718   -0.1365 C   0  0  0  0  0  0  0  0  0  0  0  0
   -2.5214   -0.2649   -0.1246 C   0  0  0  0  0  0  0  0  0  0  0  0
   -2.6287    0.8367   -0.9385 O   0  0  0  0  0  0  0  0  0  0  0  0
    3.3013    1.3777   -0.7623 H   0  0  0  0  0  0  0  0  0  0  0  0
    2.3580    0.6242    1.6845 H   0  0  0  0  0  0  0  0  0  0  0  0
    3.3330   -0.2840    0.5162 H   0  0  0  0  0  0  0  0  0  0  0  0
    1.4504   -1.0260   -0.7437 H   0  0  0  0  0  0  0  0  0  0  0  0
    1.2797   -1.4502    1.0228 H   0  0  0  0  0  0  0  0  0  0  0  0
   -0.2944    0.4825    1.3114 H   0  0  0  0  0  0  0  0  0  0  0  0
    0.2996    0.8105   -1.4897 H   0  0  0  0  0  0  0  0  0  0  0  0
   -1.1420   -1.7353    0.5610 H   0  0  0  0  0  0  0  0  0  0  0  0
   -0.9479   -1.2533   -1.1486 H   0  0  0  0  0  0  0  0  0  0  0  0
   -2.7567    0.0728    0.9187 H   0  0  0  0  0  0  0  0  0  0  0  0
   -3.2870   -1.0043   -0.4336 H   0  0  0  0  0  0  0  0  0  0  0  0
   -3.3459    1.4171   -0.5851 H   0  0  0  0  0  0  0  0  0  0  0  0
  1  2  1  0
  2  3  1  0
  3  4  1  0
  4  5  1  0
  4  6  1  0
  6  7  1  0
  7  8  1  0
  1  9  1  0
  2 10  1  0
  2 11  1  0
  3 12  1  0
  3 13  1  0
  4 14  1  0
  5 15  1  0
  6 16  1  0
  6 17  1  0
  7 18  1  0
  7 19  1  0
  8 20  1  0
M  END
