
     RDKit          3D

 19 20  0  0  0  0  0  0  0  0999 V2000
    1.9314    0.4838   -1.2128 O   0  0  0  0  0  0  0  0  0  0  0  0
    1.9358   -0.6490   -0.4203 C   0  0  0  0  0  0  0  0  0  0  0  0
    1.1760   -0.4131    0.8325 C   0  0  0  0  0  0  0  0  0  0  0  0
   -0.2587   -0.0654    0.7025 C   0  0  0  0  0  0  0  0  0  0  0  0
   -0.8868    0.1354    1.9603 O   0  0  0  0  0  0  0  0  0  0  0  0
   -0.7889    0.8396   -0.3391 C   0  0  0  0  0  0  0  0  0  0  0  0
   -2.2890    1.0555   -0.2631 C   0  0  0  0  0  0  0  0  0  0  0  0
   -2.4669   -0.3123   -0.2781 O   0  0  0  0  0  0  0  0  0  0  0  0
   -1.1149   -0.6248   -0.3744 C   0  0  0  0  0  0  0  0  0  0  0  0
    2.5392    0.3447   -1.9856 H   0  0  0  0  0  0  0  0  0  0  0  0
    2.9792   -0.9176   -0.1383 H   0  0  0  0  0  0  0  0  0  0  0  0
    1.5300   -1.5395   -0.9415 H   0  0  0  0  0  0  0  0  0  0  0  0
    1.6729    0.4674    1.3428 H   0  0  0  0  0  0  0  0  0  0  0  0
    1.3450   -1.2596    1.5636 H   0  0  0  0  0  0  0  0  0  0  0  0
   -1.1058   -0.7157    2.3827 H   0  0  0  0  0  0  0  0  0  0  0  0
   -0.2227    1.2546   -1.1667 H   0  0  0  0  0  0  0  0  0  0  0  0
   -2.5704    1.5491    0.6831 H   0  0  0  0  0  0  0  0  0  0  0  0
   -2.6748    1.5981   -1.1538 H   0  0  0  0  0  0  0  0  0  0  0  0
   -0.7305   -1.2309   -1.1940 H   0  0  0  0  0  0  0  0  0  0  0  0
  1  2  1  0
  2  3  1  0
  3  4  1  0
  4  5  1  0
  4  6  1  0
  6  7  1  0
  7  8  1  0
  8  9  1  0
  9  4  1  0
  9  6  1  0
  1 10  1  0
  2 11  1  0
  2 12  1  0
  3 13  1  0
  3 14  1  0
  5 15  1  0
  6 16  1  0
  7 17  1  0
  7 18  1  0
  9 19  1  0
M  END
