
     RDKit          3D

 19 19  0  0  0  0  0  0  0  0999 V2000
   -2.0547   -1.7775   -2.1507 O   0  0  0  0  0  0  0  0  0  0  0  0
   -2.5257   -0.4936   -2.0118 C   0  0  0  0  0  0  0  0  0  0  0  0
   -2.2821    0.0699   -0.6087 C   0  0  0  0  0  0  0  0  0  0  0  0
   -0.8497    0.0937   -0.3095 C   0  0  0  0  0  0  0  0  0  0  0  0
    0.3277    0.0923   -0.0645 C   0  0  0  0  0  0  0  0  0  0  0  0
    1.7744    0.0708    0.2533 C   0  0  0  0  0  0  0  0  0  0  0  0
    2.0655    1.1703    1.2471 C   0  0  0  0  0  0  0  0  0  0  0  0
    2.5687    0.0453    2.1258 C   0  0  0  0  0  0  0  0  0  0  0  0
    2.1324   -0.8850    1.1951 O   0  0  0  0  0  0  0  0  0  0  0  0
   -2.2590   -2.2921   -1.3133 H   0  0  0  0  0  0  0  0  0  0  0  0
   -3.5862   -0.3870   -2.3020 H   0  0  0  0  0  0  0  0  0  0  0  0
   -1.9400    0.1909   -2.6925 H   0  0  0  0  0  0  0  0  0  0  0  0
   -2.7278    1.0880   -0.5947 H   0  0  0  0  0  0  0  0  0  0  0  0
   -2.8057   -0.5572    0.1589 H   0  0  0  0  0  0  0  0  0  0  0  0
    2.4294    0.0210   -0.6215 H   0  0  0  0  0  0  0  0  0  0  0  0
    2.8721    1.8225    0.8379 H   0  0  0  0  0  0  0  0  0  0  0  0
    1.1841    1.7108    1.6387 H   0  0  0  0  0  0  0  0  0  0  0  0
    2.0089   -0.0779    3.0675 H   0  0  0  0  0  0  0  0  0  0  0  0
    3.6678    0.0948    2.2629 H   0  0  0  0  0  0  0  0  0  0  0  0
  1  2  1  0
  2  3  1  0
  3  4  1  0
  4  5  3  0
  5  6  1  0
  6  7  1  0
  7  8  1  0
  8  9  1  0
  9  6  1  0
  1 10  1  0
  2 11  1  0
  2 12  1  0
  3 13  1  0
  3 14  1  0
  6 15  1  0
  7 16  1  0
  7 17  1  0
  8 18  1  0
  8 19  1  0
M  END
