
     RDKit          3D

 21 21  0  0  0  0  0  0  0  0999 V2000
    3.0508    0.7842    0.5022 O   0  0  0  0  0  0  0  0  0  0  0  0
    2.4991    0.1158   -0.5991 C   0  0  0  0  0  0  0  0  0  0  0  0
    1.0166    0.3597   -0.7137 C   0  0  0  0  0  0  0  0  0  0  0  0
    0.2392   -0.0989    0.4853 C   0  0  0  0  0  0  0  0  0  0  0  0
   -1.2217    0.2101    0.2251 C   0  0  0  0  0  0  0  0  0  0  0  0
   -1.4669    1.5710    0.0250 O   0  0  0  0  0  0  0  0  0  0  0  0
   -2.2824   -0.5233    0.9459 C   0  0  0  0  0  0  0  0  0  0  0  0
   -2.0272   -0.8075   -0.4905 C   0  0  0  0  0  0  0  0  0  0  0  0
   -1.4852   -2.0504   -0.7668 O   0  0  0  0  0  0  0  0  0  0  0  0
    3.9430    0.3572    0.6638 H   0  0  0  0  0  0  0  0  0  0  0  0
    2.7785   -0.9447   -0.6158 H   0  0  0  0  0  0  0  0  0  0  0  0
    2.9666    0.5819   -1.4970 H   0  0  0  0  0  0  0  0  0  0  0  0
    0.6716   -0.1744   -1.6227 H   0  0  0  0  0  0  0  0  0  0  0  0
    0.8528    1.4248   -0.8607 H   0  0  0  0  0  0  0  0  0  0  0  0
    0.3477   -1.1780    0.6916 H   0  0  0  0  0  0  0  0  0  0  0  0
    0.5365    0.5301    1.3603 H   0  0  0  0  0  0  0  0  0  0  0  0
   -0.8722    2.0588    0.6638 H   0  0  0  0  0  0  0  0  0  0  0  0
   -2.0297   -1.3141    1.6997 H   0  0  0  0  0  0  0  0  0  0  0  0
   -3.2375   -0.0018    1.1581 H   0  0  0  0  0  0  0  0  0  0  0  0
   -2.7188   -0.4045   -1.2729 H   0  0  0  0  0  0  0  0  0  0  0  0
   -1.5609   -2.6522    0.0186 H   0  0  0  0  0  0  0  0  0  0  0  0
  1  2  1  0
  2  3  1  0
  3  4  1  0
  4  5  1  0
  5  6  1  0
  5  7  1  0
  7  8  1  0
  8  9  1  0
  8  5  1  0
  1 10  1  0
  2 11  1  0
  2 12  1  0
  3 13  1  0
  3 14  1  0
  4 15  1  0
  4 16  1  0
  6 17  1  0
  7 18  1  0
  7 19  1  0
  8 20  1  0
  9 21  1  0
M  END
