
     RDKit          3D

 21 22  0  0  0  0  0  0  0  0999 V2000
   -3.4977   -0.6979    0.1489 O   0  0  0  0  0  0  0  0  0  0  0  0
   -2.1490   -0.4163    0.4422 C   0  0  0  0  0  0  0  0  0  0  0  0
   -1.5795    0.5233   -0.5613 C   0  0  0  0  0  0  0  0  0  0  0  0
   -0.1709    0.9140   -0.3418 C   0  0  0  0  0  0  0  0  0  0  0  0
    0.8541   -0.1459   -0.3188 C   0  0  0  0  0  0  0  0  0  0  0  0
    0.9532   -1.2662    0.5962 C   0  0  0  0  0  0  0  0  0  0  0  0
    1.8903   -0.0850    0.8129 C   0  0  0  0  0  0  0  0  0  0  0  0
    2.9057    0.1596   -0.2510 C   0  0  0  0  0  0  0  0  0  0  0  0
    1.9391   -0.0459   -1.2308 O   0  0  0  0  0  0  0  0  0  0  0  0
   -4.0426    0.1233    0.1055 H   0  0  0  0  0  0  0  0  0  0  0  0
   -1.6364   -1.3988    0.3013 H   0  0  0  0  0  0  0  0  0  0  0  0
   -2.0760   -0.0687    1.4828 H   0  0  0  0  0  0  0  0  0  0  0  0
   -1.7087    0.1344   -1.6009 H   0  0  0  0  0  0  0  0  0  0  0  0
   -2.2145    1.4580   -0.5169 H   0  0  0  0  0  0  0  0  0  0  0  0
   -0.1121    1.6052    0.5556 H   0  0  0  0  0  0  0  0  0  0  0  0
    0.0992    1.6235   -1.1850 H   0  0  0  0  0  0  0  0  0  0  0  0
    1.5025   -2.1766    0.2142 H   0  0  0  0  0  0  0  0  0  0  0  0
    0.3669   -1.4775    1.4876 H   0  0  0  0  0  0  0  0  0  0  0  0
    1.7113    0.6133    1.6299 H   0  0  0  0  0  0  0  0  0  0  0  0
    3.2390    1.2145   -0.2720 H   0  0  0  0  0  0  0  0  0  0  0  0
    3.7258   -0.5903   -0.2250 H   0  0  0  0  0  0  0  0  0  0  0  0
  1  2  1  0
  2  3  1  0
  3  4  1  0
  4  5  1  0
  5  6  1  0
  6  7  1  0
  7  8  1  0
  8  9  1  0
  7  5  1  0
  9  5  1  0
  1 10  1  0
  2 11  1  0
  2 12  1  0
  3 13  1  0
  3 14  1  0
  4 15  1  0
  4 16  1  0
  6 17  1  0
  6 18  1  0
  7 19  1  0
  8 20  1  0
  8 21  1  0
M  END
