
     RDKit          3D

 21 22  0  0  0  0  0  0  0  0999 V2000
   -3.2470    0.8936    0.5816 O   0  0  0  0  0  0  0  0  0  0  0  0
   -2.2118   -0.0286    0.5120 C   0  0  0  0  0  0  0  0  0  0  0  0
   -1.3407    0.3459   -0.6463 C   0  0  0  0  0  0  0  0  0  0  0  0
   -0.1642   -0.6355   -0.7886 C   0  0  0  0  0  0  0  0  0  0  0  0
    0.6886   -0.6566    0.4179 C   0  0  0  0  0  0  0  0  0  0  0  0
    1.2831    0.6851    0.7379 C   0  0  0  0  0  0  0  0  0  0  0  0
    2.2923    0.2553   -0.3402 C   0  0  0  0  0  0  0  0  0  0  0  0
    2.1924   -1.0409    0.3573 C   0  0  0  0  0  0  0  0  0  0  0  0
    1.2009   -1.8577    0.6206 O   0  0  0  0  0  0  0  0  0  0  0  0
   -3.4036    1.2697   -0.3087 H   0  0  0  0  0  0  0  0  0  0  0  0
   -2.6806   -1.0191    0.3359 H   0  0  0  0  0  0  0  0  0  0  0  0
   -1.6602   -0.1104    1.4681 H   0  0  0  0  0  0  0  0  0  0  0  0
   -1.9576    0.1727   -1.5747 H   0  0  0  0  0  0  0  0  0  0  0  0
   -1.0319    1.3852   -0.6695 H   0  0  0  0  0  0  0  0  0  0  0  0
   -0.7382   -1.6186   -0.8421 H   0  0  0  0  0  0  0  0  0  0  0  0
    0.2942   -0.5678   -1.7656 H   0  0  0  0  0  0  0  0  0  0  0  0
    0.6968    1.5241    0.3987 H   0  0  0  0  0  0  0  0  0  0  0  0
    1.7643    0.7959    1.7161 H   0  0  0  0  0  0  0  0  0  0  0  0
    3.2749    0.7655   -0.1970 H   0  0  0  0  0  0  0  0  0  0  0  0
    1.9929    0.3923   -1.3654 H   0  0  0  0  0  0  0  0  0  0  0  0
    2.7553   -0.9501    1.3516 H   0  0  0  0  0  0  0  0  0  0  0  0
  1  2  1  0
  2  3  1  0
  3  4  1  0
  4  5  1  0
  5  6  1  0
  6  7  1  0
  7  8  1  0
  8  9  1  0
  8  5  1  0
  9  5  1  0
  1 10  1  0
  2 11  1  0
  2 12  1  0
  3 13  1  0
  3 14  1  0
  4 15  1  0
  4 16  1  0
  6 17  1  0
  6 18  1  0
  7 19  1  0
  7 20  1  0
  8 21  1  0
M  END
