
     RDKit          3D

 18 19  0  0  0  0  0  0  0  0999 V2000
    2.5676    1.0640   -0.3837 O   0  0  0  0  0  0  0  0  0  0  0  0
    2.2632   -0.2072    0.0963 C   0  0  0  0  0  0  0  0  0  0  0  0
    1.0202   -0.7711   -0.5544 C   0  0  0  0  0  0  0  0  0  0  0  0
   -0.1240    0.1453   -0.2570 C   0  0  0  0  0  0  0  0  0  0  0  0
   -0.3176    0.2405    1.1497 O   0  0  0  0  0  0  0  0  0  0  0  0
   -1.5558    0.7274    0.7381 C   0  0  0  0  0  0  0  0  0  0  0  0
   -2.7070    0.0183    0.3176 C   0  0  0  0  0  0  0  0  0  0  0  0
   -1.4749   -0.5818   -0.1461 C   0  0  0  0  0  0  0  0  0  0  0  0
    2.4967    1.7660    0.3138 H   0  0  0  0  0  0  0  0  0  0  0  0
    2.1347   -0.1240    1.1942 H   0  0  0  0  0  0  0  0  0  0  0  0
    3.1587   -0.8432   -0.1033 H   0  0  0  0  0  0  0  0  0  0  0  0
    1.1962   -0.9195   -1.6190 H   0  0  0  0  0  0  0  0  0  0  0  0
    0.8205   -1.7476   -0.0432 H   0  0  0  0  0  0  0  0  0  0  0  0
   -0.1372    1.0813   -0.8038 H   0  0  0  0  0  0  0  0  0  0  0  0
   -1.3539    1.6855    0.1627 H   0  0  0  0  0  0  0  0  0  0  0  0
   -3.3753    0.4296   -0.4954 H   0  0  0  0  0  0  0  0  0  0  0  0
   -3.3644   -0.4363    1.1202 H   0  0  0  0  0  0  0  0  0  0  0  0
   -1.2477   -1.5272    0.4430 H   0  0  0  0  0  0  0  0  0  0  0  0
  1  2  1  0
  2  3  1  0
  3  4  1  0
  4  5  1  0
  5  6  1  0
  6  7  1  0
  7  8  1  0
  8  4  1  0
  8  6  1  0
  1  9  1  0
  2 10  1  0
  2 11  1  0
  3 12  1  0
  3 13  1  0
  4 14  1  0
  6 15  1  0
  7 16  1  0
  7 17  1  0
  8 18  1  0
M  END
