
     RDKit          3D

 21 22  0  0  0  0  0  0  0  0999 V2000
    3.1521    0.7082   -1.0072 O   0  0  0  0  0  0  0  0  0  0  0  0
    1.7628    0.7338   -0.7437 C   0  0  0  0  0  0  0  0  0  0  0  0
    1.4932   -0.3930    0.2073 C   0  0  0  0  0  0  0  0  0  0  0  0
    0.0361   -0.4989    0.5899 C   0  0  0  0  0  0  0  0  0  0  0  0
   -0.4891    0.6882    1.2407 C   0  0  0  0  0  0  0  0  0  0  0  0
   -1.5598    1.1204    0.6082 C   0  0  0  0  0  0  0  0  0  0  0  0
   -1.9176    0.2906   -0.5636 C   0  0  0  0  0  0  0  0  0  0  0  0
   -2.1559   -1.1631   -0.4581 C   0  0  0  0  0  0  0  0  0  0  0  0
   -0.7655   -0.6696   -0.6547 C   0  0  0  0  0  0  0  0  0  0  0  0
    3.5701   -0.1249   -0.7031 H   0  0  0  0  0  0  0  0  0  0  0  0
    1.2639    0.6048   -1.7187 H   0  0  0  0  0  0  0  0  0  0  0  0
    1.4879    1.7253   -0.3195 H   0  0  0  0  0  0  0  0  0  0  0  0
    1.8173   -1.3306   -0.2907 H   0  0  0  0  0  0  0  0  0  0  0  0
    2.1486   -0.2797    1.0958 H   0  0  0  0  0  0  0  0  0  0  0  0
   -0.0829   -1.3622    1.2897 H   0  0  0  0  0  0  0  0  0  0  0  0
   -0.0664    1.1598    2.1231 H   0  0  0  0  0  0  0  0  0  0  0  0
   -2.1554    2.0044    0.8910 H   0  0  0  0  0  0  0  0  0  0  0  0
   -2.2531    0.8052   -1.5011 H   0  0  0  0  0  0  0  0  0  0  0  0
   -2.6132   -1.6479   -1.3229 H   0  0  0  0  0  0  0  0  0  0  0  0
   -2.3902   -1.6522    0.5117 H   0  0  0  0  0  0  0  0  0  0  0  0
   -0.2831   -0.7185   -1.6531 H   0  0  0  0  0  0  0  0  0  0  0  0
  1  2  1  0
  2  3  1  0
  3  4  1  0
  4  5  1  0
  5  6  2  0
  6  7  1  0
  7  8  1  0
  8  9  1  0
  9  4  1  0
  9  7  1  0
  1 10  1  0
  2 11  1  0
  2 12  1  0
  3 13  1  0
  3 14  1  0
  4 15  1  0
  5 16  1  0
  6 17  1  0
  7 18  1  0
  8 19  1  0
  8 20  1  0
  9 21  1  0
M  END
