
     RDKit          3D

 23 23  0  0  0  0  0  0  0  0999 V2000
    3.2218    0.2579    0.8354 O   0  0  0  0  0  0  0  0  0  0  0  0
    2.7824    0.4451   -0.4914 C   0  0  0  0  0  0  0  0  0  0  0  0
    1.5509   -0.4062   -0.6825 C   0  0  0  0  0  0  0  0  0  0  0  0
    0.4685    0.0260    0.3021 C   0  0  0  0  0  0  0  0  0  0  0  0
   -0.7781   -0.8192    0.1250 C   0  0  0  0  0  0  0  0  0  0  0  0
   -1.7845   -0.2967    1.1589 C   0  0  0  0  0  0  0  0  0  0  0  0
   -2.3542    0.8709    0.3994 C   0  0  0  0  0  0  0  0  0  0  0  0
   -2.3657    0.5248   -0.9258 O   0  0  0  0  0  0  0  0  0  0  0  0
   -1.5024   -0.5081   -1.1428 C   0  0  0  0  0  0  0  0  0  0  0  0
    2.7566    0.9190    1.4264 H   0  0  0  0  0  0  0  0  0  0  0  0
    3.5746    0.1034   -1.1606 H   0  0  0  0  0  0  0  0  0  0  0  0
    2.5321    1.5227   -0.5873 H   0  0  0  0  0  0  0  0  0  0  0  0
    1.8485   -1.4573   -0.5197 H   0  0  0  0  0  0  0  0  0  0  0  0
    1.1607   -0.3362   -1.7077 H   0  0  0  0  0  0  0  0  0  0  0  0
    0.2626    1.0962    0.1306 H   0  0  0  0  0  0  0  0  0  0  0  0
    0.8860   -0.0669    1.3243 H   0  0  0  0  0  0  0  0  0  0  0  0
   -0.5670   -1.8837    0.2552 H   0  0  0  0  0  0  0  0  0  0  0  0
   -1.2135   -0.0244    2.0471 H   0  0  0  0  0  0  0  0  0  0  0  0
   -2.5072   -1.1135    1.3079 H   0  0  0  0  0  0  0  0  0  0  0  0
   -3.3534    1.1771    0.7845 H   0  0  0  0  0  0  0  0  0  0  0  0
   -1.6361    1.7257    0.5292 H   0  0  0  0  0  0  0  0  0  0  0  0
   -0.8556   -0.3402   -2.0162 H   0  0  0  0  0  0  0  0  0  0  0  0
   -2.1271   -1.4168   -1.3920 H   0  0  0  0  0  0  0  0  0  0  0  0
  1  2  1  0
  2  3  1  0
  3  4  1  0
  4  5  1  0
  5  6  1  0
  6  7  1  0
  7  8  1  0
  8  9  1  0
  9  5  1  0
  1 10  1  0
  2 11  1  0
  2 12  1  0
  3 13  1  0
  3 14  1  0
  4 15  1  0
  4 16  1  0
  5 17  1  0
  6 18  1  0
  6 19  1  0
  7 20  1  0
  7 21  1  0
  9 22  1  0
  9 23  1  0
M  END
