
     RDKit          3D

 21 21  0  0  0  0  0  0  0  0999 V2000
   -2.4690    0.2657   -1.4070 O   0  0  0  0  0  0  0  0  0  0  0  0
   -2.2645    0.3709   -0.0359 C   0  0  0  0  0  0  0  0  0  0  0  0
   -1.2808   -0.6893    0.3946 C   0  0  0  0  0  0  0  0  0  0  0  0
    0.0515   -0.4994   -0.3349 C   0  0  0  0  0  0  0  0  0  0  0  0
    0.9550   -1.5552    0.1267 C   0  0  0  0  0  0  0  0  0  0  0  0
    2.1502   -1.0927    0.3644 C   0  0  0  0  0  0  0  0  0  0  0  0
    2.1917    0.3567    0.0851 C   0  0  0  0  0  0  0  0  0  0  0  0
    0.7192    0.7891    0.1086 C   0  0  0  0  0  0  0  0  0  0  0  0
    0.3585    1.1573    1.3963 O   0  0  0  0  0  0  0  0  0  0  0  0
   -2.6418    1.1600   -1.7716 H   0  0  0  0  0  0  0  0  0  0  0  0
   -1.8065    1.3524    0.2299 H   0  0  0  0  0  0  0  0  0  0  0  0
   -3.1832    0.2293    0.5551 H   0  0  0  0  0  0  0  0  0  0  0  0
   -1.0994   -0.6097    1.4739 H   0  0  0  0  0  0  0  0  0  0  0  0
   -1.6513   -1.6867    0.1463 H   0  0  0  0  0  0  0  0  0  0  0  0
   -0.0946   -0.4782   -1.4298 H   0  0  0  0  0  0  0  0  0  0  0  0
    0.6377   -2.6066    0.2500 H   0  0  0  0  0  0  0  0  0  0  0  0
    3.0429   -1.6577    0.7248 H   0  0  0  0  0  0  0  0  0  0  0  0
    2.7922    0.9353    0.8129 H   0  0  0  0  0  0  0  0  0  0  0  0
    2.5273    0.4886   -0.9629 H   0  0  0  0  0  0  0  0  0  0  0  0
    0.5261    1.6244   -0.5692 H   0  0  0  0  0  0  0  0  0  0  0  0
    0.5386    2.1458    1.4709 H   0  0  0  0  0  0  0  0  0  0  0  0
  1  2  1  0
  2  3  1  0
  3  4  1  0
  4  5  1  0
  5  6  2  0
  6  7  1  0
  7  8  1  0
  8  9  1  0
  8  4  1  0
  1 10  1  0
  2 11  1  0
  2 12  1  0
  3 13  1  0
  3 14  1  0
  4 15  1  0
  5 16  1  0
  6 17  1  0
  7 18  1  0
  7 19  1  0
  8 20  1  0
  9 21  1  0
M  END
