
     RDKit          3D

 23 23  0  0  0  0  0  0  0  0999 V2000
    3.8880    0.1173   -0.3740 O   0  0  0  0  0  0  0  0  0  0  0  0
    3.0169   -0.8599    0.0501 C   0  0  0  0  0  0  0  0  0  0  0  0
    1.5595   -0.4889   -0.2562 C   0  0  0  0  0  0  0  0  0  0  0  0
    1.1909    0.8027    0.4432 C   0  0  0  0  0  0  0  0  0  0  0  0
   -0.1053    1.0983    0.1468 O   0  0  0  0  0  0  0  0  0  0  0  0
   -1.0730    0.2243    0.5112 C   0  0  0  0  0  0  0  0  0  0  0  0
   -2.3283    0.7963    1.1308 C   0  0  0  0  0  0  0  0  0  0  0  0
   -3.1033   -0.2139    0.2870 C   0  0  0  0  0  0  0  0  0  0  0  0
   -1.9473   -0.1148   -0.7073 C   0  0  0  0  0  0  0  0  0  0  0  0
    3.5592    0.4954   -1.2426 H   0  0  0  0  0  0  0  0  0  0  0  0
    3.2431   -1.8468   -0.3863 H   0  0  0  0  0  0  0  0  0  0  0  0
    3.0437   -1.0072    1.1615 H   0  0  0  0  0  0  0  0  0  0  0  0
    0.9175   -1.3375    0.0180 H   0  0  0  0  0  0  0  0  0  0  0  0
    1.4609   -0.3794   -1.3662 H   0  0  0  0  0  0  0  0  0  0  0  0
    1.8224    1.6019   -0.0413 H   0  0  0  0  0  0  0  0  0  0  0  0
    1.3999    0.7369    1.5236 H   0  0  0  0  0  0  0  0  0  0  0  0
   -0.6837   -0.6571    1.0343 H   0  0  0  0  0  0  0  0  0  0  0  0
   -2.5392    1.8208    0.8373 H   0  0  0  0  0  0  0  0  0  0  0  0
   -2.4723    0.5340    2.2052 H   0  0  0  0  0  0  0  0  0  0  0  0
   -4.0526    0.2193   -0.0814 H   0  0  0  0  0  0  0  0  0  0  0  0
   -3.1452   -1.2239    0.7077 H   0  0  0  0  0  0  0  0  0  0  0  0
   -2.0012    0.7398   -1.3877 H   0  0  0  0  0  0  0  0  0  0  0  0
   -1.6507   -1.0577   -1.1695 H   0  0  0  0  0  0  0  0  0  0  0  0
  1  2  1  0
  2  3  1  0
  3  4  1  0
  4  5  1  0
  5  6  1  0
  6  7  1  0
  7  8  1  0
  8  9  1  0
  9  6  1  0
  1 10  1  0
  2 11  1  0
  2 12  1  0
  3 13  1  0
  3 14  1  0
  4 15  1  0
  4 16  1  0
  6 17  1  0
  7 18  1  0
  7 19  1  0
  8 20  1  0
  8 21  1  0
  9 22  1  0
  9 23  1  0
M  END
