
     RDKit          3D

 21 22  0  0  0  0  0  0  0  0999 V2000
    3.3483   -0.6164   -0.0527 O   0  0  0  0  0  0  0  0  0  0  0  0
    2.1471   -0.0746   -0.5613 C   0  0  0  0  0  0  0  0  0  0  0  0
    1.1853    0.0104    0.5813 C   0  0  0  0  0  0  0  0  0  0  0  0
   -0.1083    0.5793    0.1013 C   0  0  0  0  0  0  0  0  0  0  0  0
   -1.1328    0.6867    1.2498 C   0  0  0  0  0  0  0  0  0  0  0  0
   -2.3635    0.4991    0.4303 C   0  0  0  0  0  0  0  0  0  0  0  0
   -3.1162   -0.5215    0.1424 O   0  0  0  0  0  0  0  0  0  0  0  0
   -1.8924   -0.8856   -0.1202 C   0  0  0  0  0  0  0  0  0  0  0  0
   -0.7920   -0.3040   -0.9400 C   0  0  0  0  0  0  0  0  0  0  0  0
    3.1194   -1.4114    0.4855 H   0  0  0  0  0  0  0  0  0  0  0  0
    2.4004    0.9635   -0.8739 H   0  0  0  0  0  0  0  0  0  0  0  0
    1.8447   -0.7190   -1.3868 H   0  0  0  0  0  0  0  0  0  0  0  0
    1.0699   -0.9492    1.1259 H   0  0  0  0  0  0  0  0  0  0  0  0
    1.6051    0.7279    1.3172 H   0  0  0  0  0  0  0  0  0  0  0  0
    0.0304    1.5814   -0.2918 H   0  0  0  0  0  0  0  0  0  0  0  0
   -1.0765    1.6569    1.7495 H   0  0  0  0  0  0  0  0  0  0  0  0
   -1.0130   -0.1757    1.9470 H   0  0  0  0  0  0  0  0  0  0  0  0
   -2.4305    1.3277   -0.3426 H   0  0  0  0  0  0  0  0  0  0  0  0
   -1.4698   -1.5975    0.6536 H   0  0  0  0  0  0  0  0  0  0  0  0
   -1.2006    0.3151   -1.7762 H   0  0  0  0  0  0  0  0  0  0  0  0
   -0.1550   -1.0931   -1.3266 H   0  0  0  0  0  0  0  0  0  0  0  0
  1  2  1  0
  2  3  1  0
  3  4  1  0
  4  5  1  0
  5  6  1  0
  6  7  1  0
  7  8  1  0
  8  9  1  0
  9  4  1  0
  8  6  1  0
  1 10  1  0
  2 11  1  0
  2 12  1  0
  3 13  1  0
  3 14  1  0
  4 15  1  0
  5 16  1  0
  5 17  1  0
  6 18  1  0
  8 19  1  0
  9 20  1  0
  9 21  1  0
M  END
