
     RDKit          3D

 21 22  0  0  0  0  0  0  0  0999 V2000
    3.5681   -0.0663   -0.2738 O   0  0  0  0  0  0  0  0  0  0  0  0
    2.5572    0.6099    0.3986 C   0  0  0  0  0  0  0  0  0  0  0  0
    1.2621   -0.1395    0.2256 C   0  0  0  0  0  0  0  0  0  0  0  0
    0.1082    0.5400    0.9339 C   0  0  0  0  0  0  0  0  0  0  0  0
   -1.0953   -0.3099    0.6749 C   0  0  0  0  0  0  0  0  0  0  0  0
   -1.3750   -0.4150   -0.8426 C   0  0  0  0  0  0  0  0  0  0  0  0
   -2.7441   -0.7539   -0.2947 C   0  0  0  0  0  0  0  0  0  0  0  0
   -3.5960    0.0404    0.3175 O   0  0  0  0  0  0  0  0  0  0  0  0
   -2.3846    0.4799    0.5955 C   0  0  0  0  0  0  0  0  0  0  0  0
    3.9169   -0.7827    0.2991 H   0  0  0  0  0  0  0  0  0  0  0  0
    2.4642    1.6587    0.0702 H   0  0  0  0  0  0  0  0  0  0  0  0
    2.8111    0.5566    1.4910 H   0  0  0  0  0  0  0  0  0  0  0  0
    1.3469   -1.1498    0.6443 H   0  0  0  0  0  0  0  0  0  0  0  0
    0.9760   -0.1667   -0.8601 H   0  0  0  0  0  0  0  0  0  0  0  0
    0.2766    0.6029    2.0292 H   0  0  0  0  0  0  0  0  0  0  0  0
   -0.0327    1.5796    0.5804 H   0  0  0  0  0  0  0  0  0  0  0  0
   -1.1330   -1.2611    1.1992 H   0  0  0  0  0  0  0  0  0  0  0  0
   -1.2671    0.5635   -1.3139 H   0  0  0  0  0  0  0  0  0  0  0  0
   -0.8454   -1.2639   -1.2520 H   0  0  0  0  0  0  0  0  0  0  0  0
   -2.6636   -1.7499    0.2501 H   0  0  0  0  0  0  0  0  0  0  0  0
   -2.1504    1.4273    0.0102 H   0  0  0  0  0  0  0  0  0  0  0  0
  1  2  1  0
  2  3  1  0
  3  4  1  0
  4  5  1  0
  5  6  1  0
  6  7  1  0
  7  8  1  0
  8  9  1  0
  9  5  1  0
  9  7  1  0
  1 10  1  0
  2 11  1  0
  2 12  1  0
  3 13  1  0
  3 14  1  0
  4 15  1  0
  4 16  1  0
  5 17  1  0
  6 18  1  0
  6 19  1  0
  7 20  1  0
  9 21  1  0
M  END
