
     RDKit          3D

 21 22  0  0  0  0  0  0  0  0999 V2000
    2.4186    1.0877   -0.5367 O   0  0  0  0  0  0  0  0  0  0  0  0
    2.4411   -0.2506   -0.2419 C   0  0  0  0  0  0  0  0  0  0  0  0
    1.2741   -0.7230    0.5641 C   0  0  0  0  0  0  0  0  0  0  0  0
   -0.0470   -0.5043   -0.1160 C   0  0  0  0  0  0  0  0  0  0  0  0
   -1.2799   -0.9584    0.6393 C   0  0  0  0  0  0  0  0  0  0  0  0
   -2.2456    0.1770    0.6396 C   0  0  0  0  0  0  0  0  0  0  0  0
   -1.7726    1.0414   -0.4816 C   0  0  0  0  0  0  0  0  0  0  0  0
   -0.3564    0.6307   -0.8141 C   0  0  0  0  0  0  0  0  0  0  0  0
   -0.1621   -0.5872   -1.4789 O   0  0  0  0  0  0  0  0  0  0  0  0
    3.3194    1.4099   -0.7822 H   0  0  0  0  0  0  0  0  0  0  0  0
    3.3614   -0.4624    0.3418 H   0  0  0  0  0  0  0  0  0  0  0  0
    2.5401   -0.8397   -1.1980 H   0  0  0  0  0  0  0  0  0  0  0  0
    1.3207   -0.1698    1.5471 H   0  0  0  0  0  0  0  0  0  0  0  0
    1.3670   -1.7785    0.8067 H   0  0  0  0  0  0  0  0  0  0  0  0
   -1.7466   -1.8285    0.0964 H   0  0  0  0  0  0  0  0  0  0  0  0
   -1.0265   -1.3285    1.6547 H   0  0  0  0  0  0  0  0  0  0  0  0
   -2.1520    0.6967    1.6294 H   0  0  0  0  0  0  0  0  0  0  0  0
   -3.2980   -0.1269    0.4772 H   0  0  0  0  0  0  0  0  0  0  0  0
   -2.4458    0.9827   -1.3560 H   0  0  0  0  0  0  0  0  0  0  0  0
   -1.7421    2.0847   -0.1198 H   0  0  0  0  0  0  0  0  0  0  0  0
    0.2325    1.4471   -1.2636 H   0  0  0  0  0  0  0  0  0  0  0  0
  1  2  1  0
  2  3  1  0
  3  4  1  0
  4  5  1  0
  5  6  1  0
  6  7  1  0
  7  8  1  0
  8  9  1  0
  8  4  1  0
  9  4  1  0
  1 10  1  0
  2 11  1  0
  2 12  1  0
  3 13  1  0
  3 14  1  0
  5 15  1  0
  5 16  1  0
  6 17  1  0
  6 18  1  0
  7 19  1  0
  7 20  1  0
  8 21  1  0
M  END
