
     RDKit          3D

 17 17  0  0  0  0  0  0  0  0999 V2000
    2.8976    0.5647   -0.0684 O   0  0  0  0  0  0  0  0  0  0  0  0
    1.5088    0.6124   -0.1730 C   0  0  0  0  0  0  0  0  0  0  0  0
    0.9257   -0.7749   -0.2924 C   0  0  0  0  0  0  0  0  0  0  0  0
   -0.5605   -0.7817   -0.4073 C   0  0  0  0  0  0  0  0  0  0  0  0
   -1.3263   -0.1789    0.7298 C   0  0  0  0  0  0  0  0  0  0  0  0
   -1.9837    0.5947   -0.3848 C   0  0  0  0  0  0  0  0  0  0  0  0
   -1.0922    0.1215   -1.3255 O   0  0  0  0  0  0  0  0  0  0  0  0
    3.3117    0.2493   -0.9033 H   0  0  0  0  0  0  0  0  0  0  0  0
    1.1226    1.0928    0.7674 H   0  0  0  0  0  0  0  0  0  0  0  0
    1.2430    1.2780   -0.9974 H   0  0  0  0  0  0  0  0  0  0  0  0
    1.2529   -1.3603    0.5677 H   0  0  0  0  0  0  0  0  0  0  0  0
    1.3587   -1.2345   -1.2039 H   0  0  0  0  0  0  0  0  0  0  0  0
   -0.9476   -1.7951   -0.6384 H   0  0  0  0  0  0  0  0  0  0  0  0
   -0.7423    0.4521    1.4307 H   0  0  0  0  0  0  0  0  0  0  0  0
   -2.0720   -0.8590    1.2185 H   0  0  0  0  0  0  0  0  0  0  0  0
   -3.0444    0.3418   -0.5740 H   0  0  0  0  0  0  0  0  0  0  0  0
   -1.8520    1.6770   -0.2513 H   0  0  0  0  0  0  0  0  0  0  0  0
  1  2  1  0
  2  3  1  0
  3  4  1  0
  4  5  1  0
  5  6  1  0
  6  7  1  0
  7  4  1  0
  1  8  1  0
  2  9  1  0
  2 10  1  0
  3 11  1  0
  3 12  1  0
  4 13  1  0
  5 14  1  0
  5 15  1  0
  6 16  1  0
  6 17  1  0
M  END
