
     RDKit          3D

 18 19  0  0  0  0  0  0  0  0999 V2000
    3.2592   -0.2583    0.2916 O   0  0  0  0  0  0  0  0  0  0  0  0
    2.0433    0.1925   -0.1735 C   0  0  0  0  0  0  0  0  0  0  0  0
    0.8945   -0.6633    0.3255 C   0  0  0  0  0  0  0  0  0  0  0  0
   -0.3967   -0.0939   -0.2348 C   0  0  0  0  0  0  0  0  0  0  0  0
   -1.6156   -0.8448    0.1794 C   0  0  0  0  0  0  0  0  0  0  0  0
   -2.3970    0.4212    0.0315 C   0  0  0  0  0  0  0  0  0  0  0  0
   -1.1442    0.7478    0.7545 C   0  0  0  0  0  0  0  0  0  0  0  0
   -1.3420   -0.4292    1.4729 O   0  0  0  0  0  0  0  0  0  0  0  0
    3.8691    0.5249    0.3222 H   0  0  0  0  0  0  0  0  0  0  0  0
    1.9712    0.2006   -1.2813 H   0  0  0  0  0  0  0  0  0  0  0  0
    1.8909    1.2332    0.1674 H   0  0  0  0  0  0  0  0  0  0  0  0
    1.0385   -1.7200    0.0202 H   0  0  0  0  0  0  0  0  0  0  0  0
    0.8604   -0.6646    1.4364 H   0  0  0  0  0  0  0  0  0  0  0  0
   -0.3507    0.2494   -1.2654 H   0  0  0  0  0  0  0  0  0  0  0  0
   -1.8966   -1.7702   -0.1090 H   0  0  0  0  0  0  0  0  0  0  0  0
   -2.5524    0.8167   -0.9675 H   0  0  0  0  0  0  0  0  0  0  0  0
   -3.2806    0.4251    0.6974 H   0  0  0  0  0  0  0  0  0  0  0  0
   -0.8514    1.6328    1.1371 H   0  0  0  0  0  0  0  0  0  0  0  0
  1  2  1  0
  2  3  1  0
  3  4  1  0
  4  5  1  0
  5  6  1  0
  6  7  1  0
  7  8  1  0
  7  4  1  0
  8  5  1  0
  1  9  1  0
  2 10  1  0
  2 11  1  0
  3 12  1  0
  3 13  1  0
  4 14  1  0
  5 15  1  0
  6 16  1  0
  6 17  1  0
  7 18  1  0
M  END
