
     RDKit          3D

 21 20  0  0  0  0  0  0  0  0999 V2000
    3.1618    0.1467    0.9748 O   0  0  0  0  0  0  0  0  0  0  0  0
    3.3403    1.0227   -0.0663 C   0  0  0  0  0  0  0  0  0  0  0  0
    2.5378    0.5050   -1.2517 C   0  0  0  0  0  0  0  0  0  0  0  0
    1.1165    0.4147   -0.9311 C   0  0  0  0  0  0  0  0  0  0  0  0
   -0.0768    0.3301   -0.6737 C   0  0  0  0  0  0  0  0  0  0  0  0
   -1.5105    0.2389   -0.3875 C   0  0  0  0  0  0  0  0  0  0  0  0
   -1.6790   -0.8034    0.7045 C   0  0  0  0  0  0  0  0  0  0  0  0
   -3.1503   -0.9003    1.0019 C   0  0  0  0  0  0  0  0  0  0  0  0
   -3.7858   -1.2864   -0.1867 O   0  0  0  0  0  0  0  0  0  0  0  0
    3.9611   -0.0600    1.4943 H   0  0  0  0  0  0  0  0  0  0  0  0
    2.9499    2.0178    0.2198 H   0  0  0  0  0  0  0  0  0  0  0  0
    4.3872    1.1372   -0.3922 H   0  0  0  0  0  0  0  0  0  0  0  0
    2.6809    1.1405   -2.1511 H   0  0  0  0  0  0  0  0  0  0  0  0
    2.9528   -0.5060   -1.5274 H   0  0  0  0  0  0  0  0  0  0  0  0
   -2.0955   -0.0590   -1.2772 H   0  0  0  0  0  0  0  0  0  0  0  0
   -1.9174    1.2038   -0.0459 H   0  0  0  0  0  0  0  0  0  0  0  0
   -1.3145   -1.7880    0.3380 H   0  0  0  0  0  0  0  0  0  0  0  0
   -1.0829   -0.4928    1.5888 H   0  0  0  0  0  0  0  0  0  0  0  0
   -3.5372    0.1390    1.2106 H   0  0  0  0  0  0  0  0  0  0  0  0
   -3.4100   -1.6186    1.7806 H   0  0  0  0  0  0  0  0  0  0  0  0
   -3.5284   -2.2156   -0.4225 H   0  0  0  0  0  0  0  0  0  0  0  0
  1  2  1  0
  2  3  1  0
  3  4  1  0
  4  5  3  0
  5  6  1  0
  6  7  1  0
  7  8  1  0
  8  9  1  0
  1 10  1  0
  2 11  1  0
  2 12  1  0
  3 13  1  0
  3 14  1  0
  6 15  1  0
  6 16  1  0
  7 17  1  0
  7 18  1  0
  8 19  1  0
  8 20  1  0
  9 21  1  0
M  END
