
     RDKit          3D

 21 21  0  0  0  0  0  0  0  0999 V2000
    3.6392   -0.8833    0.1769 O   0  0  0  0  0  0  0  0  0  0  0  0
    2.4725   -0.7013   -0.5274 C   0  0  0  0  0  0  0  0  0  0  0  0
    1.5042    0.0987    0.3277 C   0  0  0  0  0  0  0  0  0  0  0  0
    0.1933    0.3406   -0.3806 C   0  0  0  0  0  0  0  0  0  0  0  0
   -0.6664    1.1236    0.5399 C   0  0  0  0  0  0  0  0  0  0  0  0
   -1.9350    0.8654    0.8039 C   0  0  0  0  0  0  0  0  0  0  0  0
   -2.5467   -0.3053    0.1213 C   0  0  0  0  0  0  0  0  0  0  0  0
   -1.7538   -0.5171   -1.1522 C   0  0  0  0  0  0  0  0  0  0  0  0
   -0.4505   -0.8085   -0.7458 O   0  0  0  0  0  0  0  0  0  0  0  0
    3.8214   -0.1891    0.8543 H   0  0  0  0  0  0  0  0  0  0  0  0
    2.0408   -1.7058   -0.7357 H   0  0  0  0  0  0  0  0  0  0  0  0
    2.6555   -0.2251   -1.4989 H   0  0  0  0  0  0  0  0  0  0  0  0
    1.3150   -0.4725    1.2590 H   0  0  0  0  0  0  0  0  0  0  0  0
    1.9599    1.0840    0.5559 H   0  0  0  0  0  0  0  0  0  0  0  0
    0.4319    1.0125   -1.2487 H   0  0  0  0  0  0  0  0  0  0  0  0
   -0.1960    1.9827    1.0331 H   0  0  0  0  0  0  0  0  0  0  0  0
   -2.4821    1.5003    1.4954 H   0  0  0  0  0  0  0  0  0  0  0  0
   -3.6297   -0.1186   -0.0852 H   0  0  0  0  0  0  0  0  0  0  0  0
   -2.4296   -1.2402    0.7174 H   0  0  0  0  0  0  0  0  0  0  0  0
   -2.1766   -1.3185   -1.7899 H   0  0  0  0  0  0  0  0  0  0  0  0
   -1.7673    0.4774   -1.6872 H   0  0  0  0  0  0  0  0  0  0  0  0
  1  2  1  0
  2  3  1  0
  3  4  1  0
  4  5  1  0
  5  6  2  0
  6  7  1  0
  7  8  1  0
  8  9  1  0
  9  4  1  0
  1 10  1  0
  2 11  1  0
  2 12  1  0
  3 13  1  0
  3 14  1  0
  4 15  1  0
  5 16  1  0
  6 17  1  0
  7 18  1  0
  7 19  1  0
  8 20  1  0
  8 21  1  0
M  END
