
     RDKit          3D

 21 21  0  0  0  0  0  0  0  0999 V2000
    2.2678    1.2944    0.6549 O   0  0  0  0  0  0  0  0  0  0  0  0
    2.4859   -0.0530    0.3467 C   0  0  0  0  0  0  0  0  0  0  0  0
    1.4366   -0.4318   -0.6800 C   0  0  0  0  0  0  0  0  0  0  0  0
    0.1051   -0.2083   -0.0419 C   0  0  0  0  0  0  0  0  0  0  0  0
   -1.0614   -0.5382   -0.9305 C   0  0  0  0  0  0  0  0  0  0  0  0
   -2.1991    0.0798   -0.1066 C   0  0  0  0  0  0  0  0  0  0  0  0
   -2.8041   -0.9168    0.6676 O   0  0  0  0  0  0  0  0  0  0  0  0
   -1.4243    1.0064    0.8084 C   0  0  0  0  0  0  0  0  0  0  0  0
   -0.1484    1.1310    0.2515 O   0  0  0  0  0  0  0  0  0  0  0  0
    3.1442    1.7602    0.4788 H   0  0  0  0  0  0  0  0  0  0  0  0
    3.5045   -0.2603    0.0259 H   0  0  0  0  0  0  0  0  0  0  0  0
    2.2743   -0.6201    1.2948 H   0  0  0  0  0  0  0  0  0  0  0  0
    1.5524    0.3003   -1.5163 H   0  0  0  0  0  0  0  0  0  0  0  0
    1.6044   -1.4519   -1.0162 H   0  0  0  0  0  0  0  0  0  0  0  0
   -0.0315   -0.7641    0.9073 H   0  0  0  0  0  0  0  0  0  0  0  0
   -0.9903   -0.0466   -1.9256 H   0  0  0  0  0  0  0  0  0  0  0  0
   -1.2372   -1.6336   -1.0078 H   0  0  0  0  0  0  0  0  0  0  0  0
   -2.8982    0.6337   -0.7309 H   0  0  0  0  0  0  0  0  0  0  0  0
   -2.3775   -1.8002    0.5340 H   0  0  0  0  0  0  0  0  0  0  0  0
   -1.2619    0.5351    1.8152 H   0  0  0  0  0  0  0  0  0  0  0  0
   -1.9414    1.9841    0.8886 H   0  0  0  0  0  0  0  0  0  0  0  0
  1  2  1  0
  2  3  1  0
  3  4  1  0
  4  5  1  0
  5  6  1  0
  6  7  1  0
  6  8  1  0
  8  9  1  0
  9  4  1  0
  1 10  1  0
  2 11  1  0
  2 12  1  0
  3 13  1  0
  3 14  1  0
  4 15  1  0
  5 16  1  0
  5 17  1  0
  6 18  1  0
  7 19  1  0
  8 20  1  0
  8 21  1  0
M  END
