
     RDKit          3D

 25 25  0  0  0  0  0  0  0  0999 V2000
    4.2605    1.0065   -0.1805 O   0  0  0  0  0  0  0  0  0  0  0  0
    3.0734    0.6870    0.4709 C   0  0  0  0  0  0  0  0  0  0  0  0
    2.0927    0.0255   -0.4878 C   0  0  0  0  0  0  0  0  0  0  0  0
    0.8299   -0.2898    0.2978 C   0  0  0  0  0  0  0  0  0  0  0  0
   -0.2089   -0.9424   -0.5362 C   0  0  0  0  0  0  0  0  0  0  0  0
   -1.4831   -1.2959    0.1006 C   0  0  0  0  0  0  0  0  0  0  0  0
   -2.4095   -0.2713    0.6065 C   0  0  0  0  0  0  0  0  0  0  0  0
   -2.9687    0.6939   -0.3959 C   0  0  0  0  0  0  0  0  0  0  0  0
   -2.2280    1.1439    0.8511 C   0  0  0  0  0  0  0  0  0  0  0  0
    4.4762    0.3638   -0.9178 H   0  0  0  0  0  0  0  0  0  0  0  0
    2.6486    1.6212    0.8941 H   0  0  0  0  0  0  0  0  0  0  0  0
    3.3093   -0.0340    1.2609 H   0  0  0  0  0  0  0  0  0  0  0  0
    1.9188    0.6899   -1.3326 H   0  0  0  0  0  0  0  0  0  0  0  0
    2.5729   -0.9013   -0.8603 H   0  0  0  0  0  0  0  0  0  0  0  0
    1.1441   -1.0291    1.0912 H   0  0  0  0  0  0  0  0  0  0  0  0
    0.4853    0.5952    0.7830 H   0  0  0  0  0  0  0  0  0  0  0  0
    0.2710   -1.8895   -0.9524 H   0  0  0  0  0  0  0  0  0  0  0  0
   -0.3811   -0.3616   -1.5059 H   0  0  0  0  0  0  0  0  0  0  0  0
   -1.2753   -2.0331    0.9504 H   0  0  0  0  0  0  0  0  0  0  0  0
   -2.0993   -1.9361   -0.6290 H   0  0  0  0  0  0  0  0  0  0  0  0
   -3.2256   -0.7585    1.2631 H   0  0  0  0  0  0  0  0  0  0  0  0
   -4.0505    0.7752   -0.4676 H   0  0  0  0  0  0  0  0  0  0  0  0
   -2.4456    0.7356   -1.3667 H   0  0  0  0  0  0  0  0  0  0  0  0
   -1.3530    1.7693    0.7395 H   0  0  0  0  0  0  0  0  0  0  0  0
   -2.9538    1.6356    1.5891 H   0  0  0  0  0  0  0  0  0  0  0  0
  1  2  1  0
  2  3  1  0
  3  4  1  0
  4  5  1  0
  5  6  1  0
  6  7  1  0
  7  8  1  0
  8  9  1  0
  9  7  1  0
  1 10  1  0
  2 11  1  0
  2 12  1  0
  3 13  1  0
  3 14  1  0
  4 15  1  0
  4 16  1  0
  5 17  1  0
  5 18  1  0
  6 19  1  0
  6 20  1  0
  7 21  1  0
  8 22  1  0
  8 23  1  0
  9 24  1  0
  9 25  1  0
M  END
