
     RDKit          3D

 19 20  0  0  0  0  0  0  0  0999 V2000
    3.5165    0.0962    0.5055 O   0  0  0  0  0  0  0  0  0  0  0  0
    2.2424    0.6316    0.2227 C   0  0  0  0  0  0  0  0  0  0  0  0
    1.2820   -0.5081    0.1729 C   0  0  0  0  0  0  0  0  0  0  0  0
   -0.1017   -0.1041   -0.1155 C   0  0  0  0  0  0  0  0  0  0  0  0
   -0.6930    1.0627   -0.3440 C   0  0  0  0  0  0  0  0  0  0  0  0
   -2.0989    0.6026   -0.6338 C   0  0  0  0  0  0  0  0  0  0  0  0
   -2.3674   -0.3300    0.5154 C   0  0  0  0  0  0  0  0  0  0  0  0
   -1.2593   -1.0385   -0.2218 C   0  0  0  0  0  0  0  0  0  0  0  0
   -1.8787   -0.5545   -1.3910 O   0  0  0  0  0  0  0  0  0  0  0  0
    3.7455   -0.6332   -0.1001 H   0  0  0  0  0  0  0  0  0  0  0  0
    2.3325    1.1869   -0.7143 H   0  0  0  0  0  0  0  0  0  0  0  0
    1.9744    1.3001    1.0770 H   0  0  0  0  0  0  0  0  0  0  0  0
    1.6082   -1.1735   -0.6797 H   0  0  0  0  0  0  0  0  0  0  0  0
    1.3810   -1.0968    1.1124 H   0  0  0  0  0  0  0  0  0  0  0  0
   -0.3487    2.0825   -0.3442 H   0  0  0  0  0  0  0  0  0  0  0  0
   -2.8155    1.3089   -0.9419 H   0  0  0  0  0  0  0  0  0  0  0  0
   -2.0894    0.1071    1.4906 H   0  0  0  0  0  0  0  0  0  0  0  0
   -3.3144   -0.8646    0.4988 H   0  0  0  0  0  0  0  0  0  0  0  0
   -1.1153   -2.0754   -0.1089 H   0  0  0  0  0  0  0  0  0  0  0  0
  1  2  1  0
  2  3  1  0
  3  4  1  0
  4  5  2  0
  5  6  1  0
  6  7  1  0
  7  8  1  0
  8  9  1  0
  8  4  1  0
  9  6  1  0
  1 10  1  0
  2 11  1  0
  2 12  1  0
  3 13  1  0
  3 14  1  0
  5 15  1  0
  6 16  1  0
  7 17  1  0
  7 18  1  0
  8 19  1  0
M  END
