
     RDKit          3D

 23 23  0  0  0  0  0  0  0  0999 V2000
   -4.0014   -1.1194    0.8297 O   0  0  0  0  0  0  0  0  0  0  0  0
   -2.8001   -0.3974    0.6635 C   0  0  0  0  0  0  0  0  0  0  0  0
   -2.4253   -0.4167   -0.8102 C   0  0  0  0  0  0  0  0  0  0  0  0
   -1.1533    0.3372   -1.0555 C   0  0  0  0  0  0  0  0  0  0  0  0
    0.0333   -0.2241   -0.3034 C   0  0  0  0  0  0  0  0  0  0  0  0
    1.1281    0.5518   -0.6142 O   0  0  0  0  0  0  0  0  0  0  0  0
    2.2988    0.1649   -0.0018 C   0  0  0  0  0  0  0  0  0  0  0  0
    3.3397    1.0839    0.4374 C   0  0  0  0  0  0  0  0  0  0  0  0
    3.5946    0.1451   -0.7230 C   0  0  0  0  0  0  0  0  0  0  0  0
   -4.5721   -0.8420    0.0599 H   0  0  0  0  0  0  0  0  0  0  0  0
   -2.9783    0.6420    0.9902 H   0  0  0  0  0  0  0  0  0  0  0  0
   -2.0491   -0.9268    1.2933 H   0  0  0  0  0  0  0  0  0  0  0  0
   -2.4004   -1.4527   -1.1868 H   0  0  0  0  0  0  0  0  0  0  0  0
   -3.2344    0.1291   -1.3379 H   0  0  0  0  0  0  0  0  0  0  0  0
   -1.3255    1.3901   -0.7203 H   0  0  0  0  0  0  0  0  0  0  0  0
   -0.9630    0.3012   -2.1583 H   0  0  0  0  0  0  0  0  0  0  0  0
    0.2233   -1.2405   -0.7420 H   0  0  0  0  0  0  0  0  0  0  0  0
   -0.1836   -0.3134    0.7561 H   0  0  0  0  0  0  0  0  0  0  0  0
    2.1355   -0.7397    0.6574 H   0  0  0  0  0  0  0  0  0  0  0  0
    3.8830    0.8715    1.4057 H   0  0  0  0  0  0  0  0  0  0  0  0
    3.3816    2.1555    0.1918 H   0  0  0  0  0  0  0  0  0  0  0  0
    3.7271    0.5705   -1.7156 H   0  0  0  0  0  0  0  0  0  0  0  0
    4.3414   -0.6702   -0.4917 H   0  0  0  0  0  0  0  0  0  0  0  0
  1  2  1  0
  2  3  1  0
  3  4  1  0
  4  5  1  0
  5  6  1  0
  6  7  1  0
  7  8  1  0
  8  9  1  0
  9  7  1  0
  1 10  1  0
  2 11  1  0
  2 12  1  0
  3 13  1  0
  3 14  1  0
  4 15  1  0
  4 16  1  0
  5 17  1  0
  5 18  1  0
  7 19  1  0
  8 20  1  0
  8 21  1  0
  9 22  1  0
  9 23  1  0
M  END
