
     RDKit          3D

 23 23  0  0  0  0  0  0  0  0999 V2000
    2.3664   -1.4403    0.3119 O   0  0  0  0  0  0  0  0  0  0  0  0
    2.5079   -0.3120   -0.4869 C   0  0  0  0  0  0  0  0  0  0  0  0
    1.4602    0.7170   -0.1416 C   0  0  0  0  0  0  0  0  0  0  0  0
    0.0508    0.2195   -0.3372 C   0  0  0  0  0  0  0  0  0  0  0  0
   -0.8600    1.3661    0.0513 C   0  0  0  0  0  0  0  0  0  0  0  0
   -2.3096    1.0225    0.0426 C   0  0  0  0  0  0  0  0  0  0  0  0
   -2.4751   -0.0484    0.9442 O   0  0  0  0  0  0  0  0  0  0  0  0
   -1.8276   -1.1471    0.4191 C   0  0  0  0  0  0  0  0  0  0  0  0
   -0.3039   -0.9842    0.4658 C   0  0  0  0  0  0  0  0  0  0  0  0
    3.1257   -2.0517    0.0634 H   0  0  0  0  0  0  0  0  0  0  0  0
    3.5180    0.0949   -0.2684 H   0  0  0  0  0  0  0  0  0  0  0  0
    2.5103   -0.5545   -1.5663 H   0  0  0  0  0  0  0  0  0  0  0  0
    1.6306    1.1854    0.8408 H   0  0  0  0  0  0  0  0  0  0  0  0
    1.5841    1.5580   -0.8874 H   0  0  0  0  0  0  0  0  0  0  0  0
   -0.0488   -0.0446   -1.4083 H   0  0  0  0  0  0  0  0  0  0  0  0
   -0.5886    2.2502   -0.5427 H   0  0  0  0  0  0  0  0  0  0  0  0
   -0.5864    1.6177    1.1166 H   0  0  0  0  0  0  0  0  0  0  0  0
   -2.6989    0.7810   -0.9544 H   0  0  0  0  0  0  0  0  0  0  0  0
   -2.8658    1.8895    0.4352 H   0  0  0  0  0  0  0  0  0  0  0  0
   -2.1380   -2.0304    1.0032 H   0  0  0  0  0  0  0  0  0  0  0  0
   -2.1304   -1.2377   -0.6408 H   0  0  0  0  0  0  0  0  0  0  0  0
   -0.0340   -0.9364    1.5214 H   0  0  0  0  0  0  0  0  0  0  0  0
    0.1134   -1.9143    0.0185 H   0  0  0  0  0  0  0  0  0  0  0  0
  1  2  1  0
  2  3  1  0
  3  4  1  0
  4  5  1  0
  5  6  1  0
  6  7  1  0
  7  8  1  0
  8  9  1  0
  9  4  1  0
  1 10  1  0
  2 11  1  0
  2 12  1  0
  3 13  1  0
  3 14  1  0
  4 15  1  0
  5 16  1  0
  5 17  1  0
  6 18  1  0
  6 19  1  0
  8 20  1  0
  8 21  1  0
  9 22  1  0
  9 23  1  0
M  END
