
     RDKit          3D

 20 19  0  0  0  0  0  0  0  0999 V2000
    1.5955   -0.4062    1.5013 O   0  0  0  0  0  0  0  0  0  0  0  0
    1.8123   -0.1771    0.1643 C   0  0  0  0  0  0  0  0  0  0  0  0
    0.7999   -0.8007   -0.7091 C   0  0  0  0  0  0  0  0  0  0  0  0
   -0.6075   -0.4039   -0.6119 C   0  0  0  0  0  0  0  0  0  0  0  0
   -1.3088   -0.5964    0.6681 C   0  0  0  0  0  0  0  0  0  0  0  0
   -0.8395    0.0616    1.7678 O   0  0  0  0  0  0  0  0  0  0  0  0
   -0.8620    1.0270   -1.0753 C   0  0  0  0  0  0  0  0  0  0  0  0
   -0.1442    1.9459   -0.3218 O   0  0  0  0  0  0  0  0  0  0  0  0
    2.4562   -0.2750    1.9962 H   0  0  0  0  0  0  0  0  0  0  0  0
    1.9513    0.9134   -0.0615 H   0  0  0  0  0  0  0  0  0  0  0  0
    2.8015   -0.6752   -0.0829 H   0  0  0  0  0  0  0  0  0  0  0  0
    1.1741   -0.8139   -1.7853 H   0  0  0  0  0  0  0  0  0  0  0  0
    0.8236   -1.9176   -0.4675 H   0  0  0  0  0  0  0  0  0  0  0  0
   -1.1732   -1.0213   -1.3851 H   0  0  0  0  0  0  0  0  0  0  0  0
   -1.2788   -1.7041    0.8987 H   0  0  0  0  0  0  0  0  0  0  0  0
   -2.4069   -0.3712    0.4912 H   0  0  0  0  0  0  0  0  0  0  0  0
   -1.5444    0.0381    2.4658 H   0  0  0  0  0  0  0  0  0  0  0  0
   -1.9385    1.2131   -0.8776 H   0  0  0  0  0  0  0  0  0  0  0  0
   -0.6836    1.1340   -2.1684 H   0  0  0  0  0  0  0  0  0  0  0  0
   -0.6270    2.8294   -0.4071 H   0  0  0  0  0  0  0  0  0  0  0  0
  1  2  1  0
  2  3  1  0
  3  4  1  0
  4  5  1  0
  5  6  1  0
  4  7  1  0
  7  8  1  0
  1  9  1  0
  2 10  1  0
  2 11  1  0
  3 12  1  0
  3 13  1  0
  4 14  1  0
  5 15  1  0
  5 16  1  0
  6 17  1  0
  7 18  1  0
  7 19  1  0
  8 20  1  0
M  END
