
     RDKit          3D

 21 22  0  0  0  0  0  0  0  0999 V2000
    2.6482    0.4063   -0.9344 O   0  0  0  0  0  0  0  0  0  0  0  0
    2.2142   -0.6001   -0.1202 C   0  0  0  0  0  0  0  0  0  0  0  0
    0.8442   -1.1188   -0.4604 C   0  0  0  0  0  0  0  0  0  0  0  0
   -0.2371   -0.1232   -0.3943 C   0  0  0  0  0  0  0  0  0  0  0  0
   -1.6157   -0.6404   -0.7356 C   0  0  0  0  0  0  0  0  0  0  0  0
   -2.2010   -0.0711    0.5379 C   0  0  0  0  0  0  0  0  0  0  0  0
   -0.8157    0.3033    0.9488 C   0  0  0  0  0  0  0  0  0  0  0  0
   -0.1181    1.2651    0.0160 C   0  0  0  0  0  0  0  0  0  0  0  0
   -0.9805    2.1738   -0.6409 O   0  0  0  0  0  0  0  0  0  0  0  0
    3.4333    0.8399   -0.5226 H   0  0  0  0  0  0  0  0  0  0  0  0
    2.1923   -0.2130    0.9359 H   0  0  0  0  0  0  0  0  0  0  0  0
    2.9801   -1.4015   -0.1192 H   0  0  0  0  0  0  0  0  0  0  0  0
    0.9109   -1.4931   -1.5203 H   0  0  0  0  0  0  0  0  0  0  0  0
    0.6343   -2.0213    0.1479 H   0  0  0  0  0  0  0  0  0  0  0  0
   -2.0477   -0.2906   -1.6719 H   0  0  0  0  0  0  0  0  0  0  0  0
   -1.6910   -1.7654   -0.6910 H   0  0  0  0  0  0  0  0  0  0  0  0
   -2.8161    0.8298    0.2730 H   0  0  0  0  0  0  0  0  0  0  0  0
   -2.6660   -0.7844    1.2216 H   0  0  0  0  0  0  0  0  0  0  0  0
   -0.3421   -0.0631    1.8497 H   0  0  0  0  0  0  0  0  0  0  0  0
    0.7314    1.7418    0.4807 H   0  0  0  0  0  0  0  0  0  0  0  0
   -1.0578    3.0258   -0.1036 H   0  0  0  0  0  0  0  0  0  0  0  0
  1  2  1  0
  2  3  1  0
  3  4  1  0
  4  5  1  0
  5  6  1  0
  6  7  1  0
  7  8  1  0
  8  9  1  0
  7  4  1  0
  8  4  1  0
  1 10  1  0
  2 11  1  0
  2 12  1  0
  3 13  1  0
  3 14  1  0
  5 15  1  0
  5 16  1  0
  6 17  1  0
  6 18  1  0
  7 19  1  0
  8 20  1  0
  9 21  1  0
M  END
