
     RDKit          3D

 21 21  0  0  0  0  0  0  0  0999 V2000
    2.3352   -1.2981    0.6668 O   0  0  0  0  0  0  0  0  0  0  0  0
    2.4847   -0.0471    0.0776 C   0  0  0  0  0  0  0  0  0  0  0  0
    1.2975    0.8615    0.3920 C   0  0  0  0  0  0  0  0  0  0  0  0
    0.0738    0.1811   -0.1545 C   0  0  0  0  0  0  0  0  0  0  0  0
   -0.1310   -1.0709    0.4212 O   0  0  0  0  0  0  0  0  0  0  0  0
   -1.4248   -1.4357    0.1543 C   0  0  0  0  0  0  0  0  0  0  0  0
   -2.2143   -0.2029   -0.1648 C   0  0  0  0  0  0  0  0  0  0  0  0
   -1.2028    0.8948    0.1973 C   0  0  0  0  0  0  0  0  0  0  0  0
   -1.4135    2.0507   -0.5048 O   0  0  0  0  0  0  0  0  0  0  0  0
    2.6614   -1.9957    0.0253 H   0  0  0  0  0  0  0  0  0  0  0  0
    2.5008   -0.1338   -1.0360 H   0  0  0  0  0  0  0  0  0  0  0  0
    3.4366    0.3826    0.4617 H   0  0  0  0  0  0  0  0  0  0  0  0
    1.5170    1.8219   -0.1117 H   0  0  0  0  0  0  0  0  0  0  0  0
    1.2144    1.0773    1.4739 H   0  0  0  0  0  0  0  0  0  0  0  0
    0.1007    0.0486   -1.2431 H   0  0  0  0  0  0  0  0  0  0  0  0
   -1.9114   -1.8988    1.0629 H   0  0  0  0  0  0  0  0  0  0  0  0
   -1.4090   -2.1691   -0.6907 H   0  0  0  0  0  0  0  0  0  0  0  0
   -2.3651   -0.1119   -1.2750 H   0  0  0  0  0  0  0  0  0  0  0  0
   -3.1482   -0.1026    0.3925 H   0  0  0  0  0  0  0  0  0  0  0  0
   -1.3196    1.0803    1.2723 H   0  0  0  0  0  0  0  0  0  0  0  0
   -1.0822    2.0678   -1.4172 H   0  0  0  0  0  0  0  0  0  0  0  0
  1  2  1  0
  2  3  1  0
  3  4  1  0
  4  5  1  0
  5  6  1  0
  6  7  1  0
  7  8  1  0
  8  9  1  0
  8  4  1  0
  1 10  1  0
  2 11  1  0
  2 12  1  0
  3 13  1  0
  3 14  1  0
  4 15  1  0
  6 16  1  0
  6 17  1  0
  7 18  1  0
  7 19  1  0
  8 20  1  0
  9 21  1  0
M  END
