
     RDKit          3D

 20 20  0  0  0  0  0  0  0  0999 V2000
    3.0352    1.1016   -0.0218 O   0  0  0  0  0  0  0  0  0  0  0  0
    1.9368    0.5199    0.6331 C   0  0  0  0  0  0  0  0  0  0  0  0
    1.0345   -0.0653   -0.4306 C   0  0  0  0  0  0  0  0  0  0  0  0
   -0.1717   -0.7065    0.2545 C   0  0  0  0  0  0  0  0  0  0  0  0
   -1.1284   -1.3192   -0.7563 C   0  0  0  0  0  0  0  0  0  0  0  0
   -1.8619    0.0167   -0.7651 C   0  0  0  0  0  0  0  0  0  0  0  0
   -1.2700    0.2694    0.6103 C   0  0  0  0  0  0  0  0  0  0  0  0
   -0.8777    1.5623    0.8568 O   0  0  0  0  0  0  0  0  0  0  0  0
    3.5324    0.4433   -0.5656 H   0  0  0  0  0  0  0  0  0  0  0  0
    2.2493   -0.2480    1.3690 H   0  0  0  0  0  0  0  0  0  0  0  0
    1.4389    1.3291    1.1998 H   0  0  0  0  0  0  0  0  0  0  0  0
    0.6664    0.7416   -1.0951 H   0  0  0  0  0  0  0  0  0  0  0  0
    1.5505   -0.8576   -0.9820 H   0  0  0  0  0  0  0  0  0  0  0  0
    0.1142   -1.4136    1.0375 H   0  0  0  0  0  0  0  0  0  0  0  0
   -1.7282   -2.1423   -0.3076 H   0  0  0  0  0  0  0  0  0  0  0  0
   -0.6588   -1.5776   -1.7271 H   0  0  0  0  0  0  0  0  0  0  0  0
   -1.4803    0.6659   -1.5555 H   0  0  0  0  0  0  0  0  0  0  0  0
   -2.9632   -0.0586   -0.7223 H   0  0  0  0  0  0  0  0  0  0  0  0
   -1.9311   -0.1793    1.3898 H   0  0  0  0  0  0  0  0  0  0  0  0
   -1.4869    1.9182    1.5781 H   0  0  0  0  0  0  0  0  0  0  0  0
  1  2  1  0
  2  3  1  0
  3  4  1  0
  4  5  1  0
  5  6  1  0
  6  7  1  0
  7  8  1  0
  7  4  1  0
  1  9  1  0
  2 10  1  0
  2 11  1  0
  3 12  1  0
  3 13  1  0
  4 14  1  0
  5 15  1  0
  5 16  1  0
  6 17  1  0
  6 18  1  0
  7 19  1  0
  8 20  1  0
M  END
