
     RDKit          3D

 21 22  0  0  0  0  0  0  0  0999 V2000
    2.6391   -0.8113    0.1288 O   0  0  0  0  0  0  0  0  0  0  0  0
    1.9785    0.3492    0.5505 C   0  0  0  0  0  0  0  0  0  0  0  0
    1.2698    0.9780   -0.5945 C   0  0  0  0  0  0  0  0  0  0  0  0
    0.2415    0.1622   -1.2828 C   0  0  0  0  0  0  0  0  0  0  0  0
   -0.8489   -0.2544   -0.5412 C   0  0  0  0  0  0  0  0  0  0  0  0
   -0.9732   -1.0780    0.6589 C   0  0  0  0  0  0  0  0  0  0  0  0
   -2.3647   -0.8156    0.1521 C   0  0  0  0  0  0  0  0  0  0  0  0
   -1.9506    0.6152   -0.0139 C   0  0  0  0  0  0  0  0  0  0  0  0
   -1.8768   -1.0497   -1.0913 O   0  0  0  0  0  0  0  0  0  0  0  0
    3.1673   -1.2243    0.8472 H   0  0  0  0  0  0  0  0  0  0  0  0
    1.3820    0.1283    1.4327 H   0  0  0  0  0  0  0  0  0  0  0  0
    2.7768    1.0560    0.9022 H   0  0  0  0  0  0  0  0  0  0  0  0
    0.7868    1.9334   -0.2286 H   0  0  0  0  0  0  0  0  0  0  0  0
    2.0577    1.3739   -1.3089 H   0  0  0  0  0  0  0  0  0  0  0  0
    0.7118   -0.7196   -1.8268 H   0  0  0  0  0  0  0  0  0  0  0  0
   -0.1078    0.7892   -2.1668 H   0  0  0  0  0  0  0  0  0  0  0  0
   -0.6269   -2.1084    0.6682 H   0  0  0  0  0  0  0  0  0  0  0  0
   -0.8361   -0.5074    1.6124 H   0  0  0  0  0  0  0  0  0  0  0  0
   -3.2194   -1.1431    0.5796 H   0  0  0  0  0  0  0  0  0  0  0  0
   -1.6942    1.1153    0.9415 H   0  0  0  0  0  0  0  0  0  0  0  0
   -2.5126    1.2110   -0.7450 H   0  0  0  0  0  0  0  0  0  0  0  0
  1  2  1  0
  2  3  1  0
  3  4  1  0
  4  5  1  0
  5  6  1  0
  6  7  1  0
  7  8  1  0
  7  9  1  0
  8  5  1  0
  9  5  1  0
  1 10  1  0
  2 11  1  0
  2 12  1  0
  3 13  1  0
  3 14  1  0
  4 15  1  0
  4 16  1  0
  6 17  1  0
  6 18  1  0
  7 19  1  0
  8 20  1  0
  8 21  1  0
M  END
