
     RDKit          3D

 21 22  0  0  0  0  0  0  0  0999 V2000
    2.6538    0.6077   -0.5158 O   0  0  0  0  0  0  0  0  0  0  0  0
    2.4577   -0.6392    0.1064 C   0  0  0  0  0  0  0  0  0  0  0  0
    1.6740   -0.3925    1.3851 C   0  0  0  0  0  0  0  0  0  0  0  0
    0.3366    0.2433    1.1034 C   0  0  0  0  0  0  0  0  0  0  0  0
    0.5280    1.5238    0.4335 O   0  0  0  0  0  0  0  0  0  0  0  0
   -0.2027    0.4150   -0.2346 C   0  0  0  0  0  0  0  0  0  0  0  0
   -1.6431    0.7571   -0.3812 C   0  0  0  0  0  0  0  0  0  0  0  0
   -2.5784   -0.3110    0.2291 C   0  0  0  0  0  0  0  0  0  0  0  0
   -2.5556   -0.0421   -1.2282 C   0  0  0  0  0  0  0  0  0  0  0  0
    3.1306    0.4954   -1.3766 H   0  0  0  0  0  0  0  0  0  0  0  0
    1.9312   -1.3310   -0.5718 H   0  0  0  0  0  0  0  0  0  0  0  0
    3.4672   -0.9893    0.4015 H   0  0  0  0  0  0  0  0  0  0  0  0
    1.5703   -1.3193    1.9634 H   0  0  0  0  0  0  0  0  0  0  0  0
    2.2689    0.3327    1.9825 H   0  0  0  0  0  0  0  0  0  0  0  0
   -0.3289    0.3300    1.9644 H   0  0  0  0  0  0  0  0  0  0  0  0
    0.3916    0.0413   -1.0843 H   0  0  0  0  0  0  0  0  0  0  0  0
   -1.9584    1.8198   -0.2372 H   0  0  0  0  0  0  0  0  0  0  0  0
   -2.1493   -1.2609    0.5501 H   0  0  0  0  0  0  0  0  0  0  0  0
   -3.3666    0.1074    0.8837 H   0  0  0  0  0  0  0  0  0  0  0  0
   -2.1622   -0.8302   -1.9128 H   0  0  0  0  0  0  0  0  0  0  0  0
   -3.4646    0.4421   -1.6326 H   0  0  0  0  0  0  0  0  0  0  0  0
  1  2  1  0
  2  3  1  0
  3  4  1  0
  4  5  1  0
  5  6  1  0
  6  7  1  0
  7  8  1  0
  8  9  1  0
  6  4  1  0
  9  7  1  0
  1 10  1  0
  2 11  1  0
  2 12  1  0
  3 13  1  0
  3 14  1  0
  4 15  1  0
  6 16  1  0
  7 17  1  0
  8 18  1  0
  8 19  1  0
  9 20  1  0
  9 21  1  0
M  END
