
     RDKit          3D

 21 22  0  0  0  0  0  0  0  0999 V2000
    3.3500    0.3847   -0.9170 O   0  0  0  0  0  0  0  0  0  0  0  0
    2.1674   -0.3830   -0.8742 C   0  0  0  0  0  0  0  0  0  0  0  0
    1.3207    0.1765    0.2197 C   0  0  0  0  0  0  0  0  0  0  0  0
    0.0169   -0.5194    0.4112 C   0  0  0  0  0  0  0  0  0  0  0  0
   -0.7614    0.1317    1.5476 C   0  0  0  0  0  0  0  0  0  0  0  0
   -1.9650    0.1416    0.6374 C   0  0  0  0  0  0  0  0  0  0  0  0
   -1.8514    1.0211   -0.5552 C   0  0  0  0  0  0  0  0  0  0  0  0
   -1.0747   -0.2270   -0.5577 C   0  0  0  0  0  0  0  0  0  0  0  0
   -1.5680   -1.3061   -1.2804 O   0  0  0  0  0  0  0  0  0  0  0  0
    3.7008    0.4627    0.0137 H   0  0  0  0  0  0  0  0  0  0  0  0
    2.5008   -1.4214   -0.6674 H   0  0  0  0  0  0  0  0  0  0  0  0
    1.6831   -0.3098   -1.8647 H   0  0  0  0  0  0  0  0  0  0  0  0
    1.1966    1.2612    0.0467 H   0  0  0  0  0  0  0  0  0  0  0  0
    1.8984    0.0728    1.1739 H   0  0  0  0  0  0  0  0  0  0  0  0
    0.1672   -1.6128    0.5705 H   0  0  0  0  0  0  0  0  0  0  0  0
   -0.4448    1.1832    1.7519 H   0  0  0  0  0  0  0  0  0  0  0  0
   -0.8176   -0.4973    2.4344 H   0  0  0  0  0  0  0  0  0  0  0  0
   -2.8428   -0.4650    0.8532 H   0  0  0  0  0  0  0  0  0  0  0  0
   -2.7312    1.0587   -1.2061 H   0  0  0  0  0  0  0  0  0  0  0  0
   -1.3932    2.0086   -0.3692 H   0  0  0  0  0  0  0  0  0  0  0  0
   -2.5520   -1.1608   -1.3685 H   0  0  0  0  0  0  0  0  0  0  0  0
  1  2  1  0
  2  3  1  0
  3  4  1  0
  4  5  1  0
  5  6  1  0
  6  7  1  0
  7  8  1  0
  8  9  1  0
  8  4  1  0
  8  6  1  0
  1 10  1  0
  2 11  1  0
  2 12  1  0
  3 13  1  0
  3 14  1  0
  4 15  1  0
  5 16  1  0
  5 17  1  0
  6 18  1  0
  7 19  1  0
  7 20  1  0
  9 21  1  0
M  END
