
     RDKit          3D

 20 19  0  0  0  0  0  0  0  0999 V2000
   -2.9825   -0.9411    0.8784 O   0  0  0  0  0  0  0  0  0  0  0  0
   -2.0855   -1.1156   -0.1628 C   0  0  0  0  0  0  0  0  0  0  0  0
   -1.1587    0.0809   -0.3197 C   0  0  0  0  0  0  0  0  0  0  0  0
   -0.3742    0.2657    0.9720 C   0  0  0  0  0  0  0  0  0  0  0  0
    0.4454    1.3281    0.8577 O   0  0  0  0  0  0  0  0  0  0  0  0
    1.3460    1.3064   -0.1338 C   0  0  0  0  0  0  0  0  0  0  0  0
    2.3231    0.1871   -0.0351 C   0  0  0  0  0  0  0  0  0  0  0  0
    1.8476   -1.0831   -0.0678 O   0  0  0  0  0  0  0  0  0  0  0  0
   -3.1995    0.0122    1.0190 H   0  0  0  0  0  0  0  0  0  0  0  0
   -1.4776   -2.0076    0.0088 H   0  0  0  0  0  0  0  0  0  0  0  0
   -2.6803   -1.2401   -1.0883 H   0  0  0  0  0  0  0  0  0  0  0  0
   -0.4685   -0.1471   -1.1529 H   0  0  0  0  0  0  0  0  0  0  0  0
   -1.7071    0.9991   -0.5986 H   0  0  0  0  0  0  0  0  0  0  0  0
    0.1726   -0.6528    1.2418 H   0  0  0  0  0  0  0  0  0  0  0  0
   -1.1366    0.4691    1.8064 H   0  0  0  0  0  0  0  0  0  0  0  0
    1.8894    2.3093   -0.1443 H   0  0  0  0  0  0  0  0  0  0  0  0
    0.8817    1.3143   -1.1757 H   0  0  0  0  0  0  0  0  0  0  0  0
    3.0114    0.3117    0.8616 H   0  0  0  0  0  0  0  0  0  0  0  0
    3.0572    0.2927   -0.8944 H   0  0  0  0  0  0  0  0  0  0  0  0
    2.2962   -1.6892   -0.7041 H   0  0  0  0  0  0  0  0  0  0  0  0
  1  2  1  0
  2  3  1  0
  3  4  1  0
  4  5  1  0
  5  6  1  0
  6  7  1  0
  7  8  1  0
  1  9  1  0
  2 10  1  0
  2 11  1  0
  3 12  1  0
  3 13  1  0
  4 14  1  0
  4 15  1  0
  6 16  1  0
  6 17  1  0
  7 18  1  0
  7 19  1  0
  8 20  1  0
M  END
