
     RDKit          3D

 19 20  0  0  0  0  0  0  0  0999 V2000
    3.3163    0.1398    0.9863 O   0  0  0  0  0  0  0  0  0  0  0  0
    1.9966   -0.3045    0.8731 C   0  0  0  0  0  0  0  0  0  0  0  0
    1.2857    0.6700   -0.0405 C   0  0  0  0  0  0  0  0  0  0  0  0
   -0.1486    0.3339   -0.2668 C   0  0  0  0  0  0  0  0  0  0  0  0
   -0.5214   -0.9649   -0.8790 C   0  0  0  0  0  0  0  0  0  0  0  0
   -1.8067   -1.2194   -0.6136 C   0  0  0  0  0  0  0  0  0  0  0  0
   -2.4115   -0.1449    0.1833 C   0  0  0  0  0  0  0  0  0  0  0  0
   -1.2724    0.8003    0.4378 C   0  0  0  0  0  0  0  0  0  0  0  0
   -0.8816    1.4846   -0.7300 O   0  0  0  0  0  0  0  0  0  0  0  0
    3.3291    1.1081    1.1936 H   0  0  0  0  0  0  0  0  0  0  0  0
    2.0379   -1.3092    0.3829 H   0  0  0  0  0  0  0  0  0  0  0  0
    1.4904   -0.4029    1.8466 H   0  0  0  0  0  0  0  0  0  0  0  0
    1.8240    0.6428   -1.0231 H   0  0  0  0  0  0  0  0  0  0  0  0
    1.3466    1.6839    0.3938 H   0  0  0  0  0  0  0  0  0  0  0  0
    0.0797   -1.6579   -1.4601 H   0  0  0  0  0  0  0  0  0  0  0  0
   -2.3769   -2.1106   -0.9338 H   0  0  0  0  0  0  0  0  0  0  0  0
   -2.9207   -0.4893    1.0950 H   0  0  0  0  0  0  0  0  0  0  0  0
   -3.1880    0.4232   -0.4003 H   0  0  0  0  0  0  0  0  0  0  0  0
   -1.1787    1.3169    1.4038 H   0  0  0  0  0  0  0  0  0  0  0  0
  1  2  1  0
  2  3  1  0
  3  4  1  0
  4  5  1  0
  5  6  2  0
  6  7  1  0
  7  8  1  0
  8  9  1  0
  8  4  1  0
  9  4  1  0
  1 10  1  0
  2 11  1  0
  2 12  1  0
  3 13  1  0
  3 14  1  0
  5 15  1  0
  6 16  1  0
  7 17  1  0
  7 18  1  0
  8 19  1  0
M  END
