
     RDKit          3D

 23 24  0  0  0  0  0  0  0  0999 V2000
    3.1146    0.9324    0.5243 O   0  0  0  0  0  0  0  0  0  0  0  0
    2.6903    0.0046   -0.4093 C   0  0  0  0  0  0  0  0  0  0  0  0
    1.6521   -0.9403    0.1988 C   0  0  0  0  0  0  0  0  0  0  0  0
    0.4938   -0.0899    0.6466 C   0  0  0  0  0  0  0  0  0  0  0  0
   -0.1782    0.7028   -0.4554 C   0  0  0  0  0  0  0  0  0  0  0  0
   -1.4633    0.1592   -0.0028 C   0  0  0  0  0  0  0  0  0  0  0  0
   -2.6774   -0.0019   -0.7803 C   0  0  0  0  0  0  0  0  0  0  0  0
   -2.6129    0.9436    0.4322 C   0  0  0  0  0  0  0  0  0  0  0  0
   -0.7884   -0.8881    0.7775 C   0  0  0  0  0  0  0  0  0  0  0  0
    3.3902    0.4241    1.3497 H   0  0  0  0  0  0  0  0  0  0  0  0
    3.5311   -0.6560   -0.7422 H   0  0  0  0  0  0  0  0  0  0  0  0
    2.2268    0.5389   -1.2706 H   0  0  0  0  0  0  0  0  0  0  0  0
    1.3785   -1.7405   -0.4975 H   0  0  0  0  0  0  0  0  0  0  0  0
    2.0833   -1.4072    1.1079 H   0  0  0  0  0  0  0  0  0  0  0  0
    0.7146    0.4654    1.5706 H   0  0  0  0  0  0  0  0  0  0  0  0
   -0.0380    1.8018   -0.2787 H   0  0  0  0  0  0  0  0  0  0  0  0
    0.1950    0.4472   -1.4556 H   0  0  0  0  0  0  0  0  0  0  0  0
   -3.2891   -0.9238   -0.5668 H   0  0  0  0  0  0  0  0  0  0  0  0
   -2.8743    0.4512   -1.7539 H   0  0  0  0  0  0  0  0  0  0  0  0
   -3.1284    0.6523    1.3498 H   0  0  0  0  0  0  0  0  0  0  0  0
   -2.5948    2.0361    0.1448 H   0  0  0  0  0  0  0  0  0  0  0  0
   -1.1188   -1.0701    1.8191 H   0  0  0  0  0  0  0  0  0  0  0  0
   -0.7068   -1.8419    0.1871 H   0  0  0  0  0  0  0  0  0  0  0  0
  1  2  1  0
  2  3  1  0
  3  4  1  0
  4  5  1  0
  5  6  1  0
  6  7  1  0
  7  8  1  0
  6  9  1  0
  9  4  1  0
  8  6  1  0
  1 10  1  0
  2 11  1  0
  2 12  1  0
  3 13  1  0
  3 14  1  0
  4 15  1  0
  5 16  1  0
  5 17  1  0
  7 18  1  0
  7 19  1  0
  8 20  1  0
  8 21  1  0
  9 22  1  0
  9 23  1  0
M  END
