
     RDKit          3D

 23 22  0  0  0  0  0  0  0  0999 V2000
   -3.4083    0.6194   -0.7724 O   0  0  0  0  0  0  0  0  0  0  0  0
   -3.1690   -0.1606    0.3345 C   0  0  0  0  0  0  0  0  0  0  0  0
   -1.7177    0.0064    0.7285 C   0  0  0  0  0  0  0  0  0  0  0  0
   -0.7647   -0.4063   -0.3542 C   0  0  0  0  0  0  0  0  0  0  0  0
    0.6338   -0.1803    0.1925 C   0  0  0  0  0  0  0  0  0  0  0  0
    0.7248    1.1795    0.4885 O   0  0  0  0  0  0  0  0  0  0  0  0
    1.6942   -0.6078   -0.7965 C   0  0  0  0  0  0  0  0  0  0  0  0
    3.0398   -0.3317   -0.1331 C   0  0  0  0  0  0  0  0  0  0  0  0
    3.1111    1.0127    0.1365 O   0  0  0  0  0  0  0  0  0  0  0  0
   -2.7296    1.3246   -0.9111 H   0  0  0  0  0  0  0  0  0  0  0  0
   -3.4741   -1.2015    0.2564 H   0  0  0  0  0  0  0  0  0  0  0  0
   -3.7632    0.2926    1.1798 H   0  0  0  0  0  0  0  0  0  0  0  0
   -1.5015    1.0492    1.0134 H   0  0  0  0  0  0  0  0  0  0  0  0
   -1.4672   -0.6118    1.6295 H   0  0  0  0  0  0  0  0  0  0  0  0
   -0.9116   -1.4415   -0.6952 H   0  0  0  0  0  0  0  0  0  0  0  0
   -0.8466    0.2377   -1.2610 H   0  0  0  0  0  0  0  0  0  0  0  0
    0.7202   -0.7342    1.1370 H   0  0  0  0  0  0  0  0  0  0  0  0
    0.5963    1.7517   -0.3157 H   0  0  0  0  0  0  0  0  0  0  0  0
    1.6132   -1.6987   -0.9330 H   0  0  0  0  0  0  0  0  0  0  0  0
    1.5950   -0.0982   -1.7515 H   0  0  0  0  0  0  0  0  0  0  0  0
    3.1441   -0.9111    0.7957 H   0  0  0  0  0  0  0  0  0  0  0  0
    3.8725   -0.6615   -0.8014 H   0  0  0  0  0  0  0  0  0  0  0  0
    3.0085    1.5717   -0.6629 H   0  0  0  0  0  0  0  0  0  0  0  0
  1  2  1  0
  2  3  1  0
  3  4  1  0
  4  5  1  0
  5  6  1  0
  5  7  1  0
  7  8  1  0
  8  9  1  0
  1 10  1  0
  2 11  1  0
  2 12  1  0
  3 13  1  0
  3 14  1  0
  4 15  1  0
  4 16  1  0
  5 17  1  0
  6 18  1  0
  7 19  1  0
  7 20  1  0
  8 21  1  0
  8 22  1  0
  9 23  1  0
M  END
