
     RDKit          3D

 18 18  0  0  0  0  0  0  0  0999 V2000
   -2.6152    0.3025    0.9472 O   0  0  0  0  0  0  0  0  0  0  0  0
   -2.1679   -0.5070   -0.0587 C   0  0  0  0  0  0  0  0  0  0  0  0
   -0.9116   -0.0314   -0.7310 C   0  0  0  0  0  0  0  0  0  0  0  0
    0.2529    0.0883    0.2103 C   0  0  0  0  0  0  0  0  0  0  0  0
    1.5283    0.5688   -0.4614 C   0  0  0  0  0  0  0  0  0  0  0  0
    2.3120    1.5019    0.2206 O   0  0  0  0  0  0  0  0  0  0  0  0
    1.4564   -0.8230    0.0128 C   0  0  0  0  0  0  0  0  0  0  0  0
    2.2372   -1.1340    1.1254 O   0  0  0  0  0  0  0  0  0  0  0  0
   -2.0593    1.0870    1.1435 H   0  0  0  0  0  0  0  0  0  0  0  0
   -2.9539   -0.5676   -0.8462 H   0  0  0  0  0  0  0  0  0  0  0  0
   -2.0604   -1.5436    0.3373 H   0  0  0  0  0  0  0  0  0  0  0  0
   -0.6329   -0.8264   -1.4792 H   0  0  0  0  0  0  0  0  0  0  0  0
   -1.1091    0.8720   -1.3081 H   0  0  0  0  0  0  0  0  0  0  0  0
    0.0289    0.4706    1.2189 H   0  0  0  0  0  0  0  0  0  0  0  0
    1.5416    0.7169   -1.5544 H   0  0  0  0  0  0  0  0  0  0  0  0
    2.0310    2.4153   -0.0266 H   0  0  0  0  0  0  0  0  0  0  0  0
    1.3238   -1.6545   -0.7161 H   0  0  0  0  0  0  0  0  0  0  0  0
    1.7981   -0.9361    1.9657 H   0  0  0  0  0  0  0  0  0  0  0  0
  1  2  1  0
  2  3  1  0
  3  4  1  0
  4  5  1  0
  5  6  1  0
  5  7  1  0
  7  8  1  0
  7  4  1  0
  1  9  1  0
  2 10  1  0
  2 11  1  0
  3 12  1  0
  3 13  1  0
  4 14  1  0
  5 15  1  0
  6 16  1  0
  7 17  1  0
  8 18  1  0
M  END
