
     RDKit          3D

 21 22  0  0  0  0  0  0  0  0999 V2000
    2.0586    1.2994   -0.4317 O   0  0  0  0  0  0  0  0  0  0  0  0
    2.1742   -0.0574   -0.4347 C   0  0  0  0  0  0  0  0  0  0  0  0
    1.4333   -0.7839    0.6231 C   0  0  0  0  0  0  0  0  0  0  0  0
   -0.0161   -0.6383    0.6745 C   0  0  0  0  0  0  0  0  0  0  0  0
   -0.5660    0.7832    0.8813 C   0  0  0  0  0  0  0  0  0  0  0  0
   -1.8306    0.0427    0.4281 C   0  0  0  0  0  0  0  0  0  0  0  0
   -2.1615   -0.4070   -0.8685 C   0  0  0  0  0  0  0  0  0  0  0  0
   -2.7710    0.5510   -1.7227 O   0  0  0  0  0  0  0  0  0  0  0  0
   -0.7611   -0.4715   -0.6284 C   0  0  0  0  0  0  0  0  0  0  0  0
    2.7216    1.7928    0.0766 H   0  0  0  0  0  0  0  0  0  0  0  0
    1.8596   -0.4576   -1.4395 H   0  0  0  0  0  0  0  0  0  0  0  0
    3.2514   -0.3185   -0.3508 H   0  0  0  0  0  0  0  0  0  0  0  0
    1.6724   -1.8645    0.5396 H   0  0  0  0  0  0  0  0  0  0  0  0
    1.8693   -0.4700    1.6171 H   0  0  0  0  0  0  0  0  0  0  0  0
   -0.5066   -1.3528    1.3314 H   0  0  0  0  0  0  0  0  0  0  0  0
   -0.2716    1.5057    0.1332 H   0  0  0  0  0  0  0  0  0  0  0  0
   -0.6092    1.1183    1.9094 H   0  0  0  0  0  0  0  0  0  0  0  0
   -2.0467   -0.7077    1.2542 H   0  0  0  0  0  0  0  0  0  0  0  0
   -2.6860   -1.3983   -1.0242 H   0  0  0  0  0  0  0  0  0  0  0  0
   -2.5883    1.4665   -1.3869 H   0  0  0  0  0  0  0  0  0  0  0  0
   -0.2257    0.3680   -1.1814 H   0  0  0  0  0  0  0  0  0  0  0  0
  1  2  1  0
  2  3  1  0
  3  4  1  0
  4  5  1  0
  5  6  1  0
  6  7  1  0
  7  8  1  0
  7  9  1  0
  9  4  1  0
  9  6  1  0
  1 10  1  0
  2 11  1  0
  2 12  1  0
  3 13  1  0
  3 14  1  0
  4 15  1  0
  5 16  1  0
  5 17  1  0
  6 18  1  0
  7 19  1  0
  8 20  1  0
  9 21  1  0
M  END
