
     RDKit          3D

 21 22  0  0  0  0  0  0  0  0999 V2000
   -2.4218    1.8473   -1.0551 O   0  0  0  0  0  0  0  0  0  0  0  0
   -1.4502    0.8331   -1.2127 C   0  0  0  0  0  0  0  0  0  0  0  0
   -0.9307    0.5357    0.1487 C   0  0  0  0  0  0  0  0  0  0  0  0
    0.1229   -0.5247    0.2292 C   0  0  0  0  0  0  0  0  0  0  0  0
    1.4161   -0.3522   -0.4946 C   0  0  0  0  0  0  0  0  0  0  0  0
    2.2890    0.7951   -0.1633 C   0  0  0  0  0  0  0  0  0  0  0  0
    1.4785    0.7330   -1.4066 O   0  0  0  0  0  0  0  0  0  0  0  0
    0.2086   -1.1667    1.6407 C   0  0  0  0  0  0  0  0  0  0  0  0
   -0.2650   -1.9342    0.4874 C   0  0  0  0  0  0  0  0  0  0  0  0
   -2.3375    2.3055   -0.1907 H   0  0  0  0  0  0  0  0  0  0  0  0
   -2.0465   -0.0600   -1.5652 H   0  0  0  0  0  0  0  0  0  0  0  0
   -0.7213    1.0870   -1.9782 H   0  0  0  0  0  0  0  0  0  0  0  0
   -0.5337    1.4706    0.6295 H   0  0  0  0  0  0  0  0  0  0  0  0
   -1.8248    0.2757    0.7821 H   0  0  0  0  0  0  0  0  0  0  0  0
    1.9459   -1.2438   -0.9068 H   0  0  0  0  0  0  0  0  0  0  0  0
    3.3557    0.7622   -0.4057 H   0  0  0  0  0  0  0  0  0  0  0  0
    1.9232    1.6507    0.4251 H   0  0  0  0  0  0  0  0  0  0  0  0
   -0.4936   -0.8225    2.4094 H   0  0  0  0  0  0  0  0  0  0  0  0
    1.2479   -1.2687    2.0222 H   0  0  0  0  0  0  0  0  0  0  0  0
   -1.3578   -2.1743    0.4738 H   0  0  0  0  0  0  0  0  0  0  0  0
    0.3955   -2.7489    0.1308 H   0  0  0  0  0  0  0  0  0  0  0  0
  1  2  1  0
  2  3  1  0
  3  4  1  0
  4  5  1  0
  5  6  1  0
  6  7  1  0
  4  8  1  0
  8  9  1  0
  9  4  1  0
  7  5  1  0
  1 10  1  0
  2 11  1  0
  2 12  1  0
  3 13  1  0
  3 14  1  0
  5 15  1  0
  6 16  1  0
  6 17  1  0
  8 18  1  0
  8 19  1  0
  9 20  1  0
  9 21  1  0
M  END
