
     RDKit          3D

 21 22  0  0  0  0  0  0  0  0999 V2000
    3.6458   -0.3924    0.1366 O   0  0  0  0  0  0  0  0  0  0  0  0
    2.2750   -0.5991    0.3955 C   0  0  0  0  0  0  0  0  0  0  0  0
    1.6842    0.7137    0.7997 C   0  0  0  0  0  0  0  0  0  0  0  0
    0.3399    0.6837    1.0911 O   0  0  0  0  0  0  0  0  0  0  0  0
   -0.3647    0.2867   -0.0170 C   0  0  0  0  0  0  0  0  0  0  0  0
   -1.4944    1.2273   -0.4300 C   0  0  0  0  0  0  0  0  0  0  0  0
   -2.4599    0.0970   -0.4779 C   0  0  0  0  0  0  0  0  0  0  0  0
   -2.1076   -1.2434   -0.9726 C   0  0  0  0  0  0  0  0  0  0  0  0
   -1.4307   -0.7591    0.2315 C   0  0  0  0  0  0  0  0  0  0  0  0
    3.9768    0.2588    0.8115 H   0  0  0  0  0  0  0  0  0  0  0  0
    2.1638   -1.3778    1.1842 H   0  0  0  0  0  0  0  0  0  0  0  0
    1.8759   -1.0230   -0.5392 H   0  0  0  0  0  0  0  0  0  0  0  0
    1.8039    1.3938   -0.0974 H   0  0  0  0  0  0  0  0  0  0  0  0
    2.2600    1.2178    1.6027 H   0  0  0  0  0  0  0  0  0  0  0  0
    0.2393    0.0783   -0.9168 H   0  0  0  0  0  0  0  0  0  0  0  0
   -1.6764    1.9426    0.3990 H   0  0  0  0  0  0  0  0  0  0  0  0
   -1.3092    1.7822   -1.3683 H   0  0  0  0  0  0  0  0  0  0  0  0
   -3.4378    0.2719   -0.0160 H   0  0  0  0  0  0  0  0  0  0  0  0
   -1.4884   -1.4045   -1.8798 H   0  0  0  0  0  0  0  0  0  0  0  0
   -2.8717   -2.0287   -0.8357 H   0  0  0  0  0  0  0  0  0  0  0  0
   -1.6238   -1.1259    1.2460 H   0  0  0  0  0  0  0  0  0  0  0  0
  1  2  1  0
  2  3  1  0
  3  4  1  0
  4  5  1  0
  5  6  1  0
  6  7  1  0
  7  8  1  0
  8  9  1  0
  9  5  1  0
  9  7  1  0
  1 10  1  0
  2 11  1  0
  2 12  1  0
  3 13  1  0
  3 14  1  0
  5 15  1  0
  6 16  1  0
  6 17  1  0
  7 18  1  0
  8 19  1  0
  8 20  1  0
  9 21  1  0
M  END
