
     RDKit          3D

 21 21  0  0  0  0  0  0  0  0999 V2000
    3.4578    0.5843    0.8519 O   0  0  0  0  0  0  0  0  0  0  0  0
    2.0818    0.8372    0.6720 C   0  0  0  0  0  0  0  0  0  0  0  0
    1.7473    0.3419   -0.7207 C   0  0  0  0  0  0  0  0  0  0  0  0
    0.4321    0.5160   -1.0566 O   0  0  0  0  0  0  0  0  0  0  0  0
   -0.4679   -0.1221   -0.2481 C   0  0  0  0  0  0  0  0  0  0  0  0
   -1.5621    0.8359    0.1794 C   0  0  0  0  0  0  0  0  0  0  0  0
   -2.5225   -0.3273    0.0507 C   0  0  0  0  0  0  0  0  0  0  0  0
   -1.5450   -0.9280   -0.9439 C   0  0  0  0  0  0  0  0  0  0  0  0
   -1.4664   -2.2931   -0.7520 O   0  0  0  0  0  0  0  0  0  0  0  0
    3.8136   -0.0319    0.1775 H   0  0  0  0  0  0  0  0  0  0  0  0
    1.5517    0.2838    1.4650 H   0  0  0  0  0  0  0  0  0  0  0  0
    1.9641    1.9317    0.7594 H   0  0  0  0  0  0  0  0  0  0  0  0
    2.3600    0.9571   -1.4215 H   0  0  0  0  0  0  0  0  0  0  0  0
    2.0519   -0.6987   -0.8321 H   0  0  0  0  0  0  0  0  0  0  0  0
   -0.0583   -0.7107    0.5891 H   0  0  0  0  0  0  0  0  0  0  0  0
   -1.7909    1.5760   -0.6267 H   0  0  0  0  0  0  0  0  0  0  0  0
   -1.4577    1.2497    1.1919 H   0  0  0  0  0  0  0  0  0  0  0  0
   -2.5675   -0.8719    1.0097 H   0  0  0  0  0  0  0  0  0  0  0  0
   -3.5117   -0.0628   -0.3843 H   0  0  0  0  0  0  0  0  0  0  0  0
   -1.7824   -0.5954   -1.9702 H   0  0  0  0  0  0  0  0  0  0  0  0
   -0.7278   -2.4716   -0.1377 H   0  0  0  0  0  0  0  0  0  0  0  0
  1  2  1  0
  2  3  1  0
  3  4  1  0
  4  5  1  0
  5  6  1  0
  6  7  1  0
  7  8  1  0
  8  9  1  0
  8  5  1  0
  1 10  1  0
  2 11  1  0
  2 12  1  0
  3 13  1  0
  3 14  1  0
  5 15  1  0
  6 16  1  0
  6 17  1  0
  7 18  1  0
  7 19  1  0
  8 20  1  0
  9 21  1  0
M  END
