
     RDKit          3D

 21 22  0  0  0  0  0  0  0  0999 V2000
    2.8775    1.0164    1.3077 O   0  0  0  0  0  0  0  0  0  0  0  0
    2.8626   -0.0283    0.3863 C   0  0  0  0  0  0  0  0  0  0  0  0
    1.5165    0.0101   -0.3113 C   0  0  0  0  0  0  0  0  0  0  0  0
    0.5502   -0.1508    0.6461 O   0  0  0  0  0  0  0  0  0  0  0  0
   -0.6252   -0.1426    0.2337 C   0  0  0  0  0  0  0  0  0  0  0  0
   -1.3705    0.9384   -0.4954 C   0  0  0  0  0  0  0  0  0  0  0  0
   -2.3761   -0.1798   -0.3908 C   0  0  0  0  0  0  0  0  0  0  0  0
   -1.8852   -0.3406    1.0223 C   0  0  0  0  0  0  0  0  0  0  0  0
   -1.2515   -1.0957   -0.7756 C   0  0  0  0  0  0  0  0  0  0  0  0
    2.4921    1.8435    0.8832 H   0  0  0  0  0  0  0  0  0  0  0  0
    3.7047   -0.0007   -0.3092 H   0  0  0  0  0  0  0  0  0  0  0  0
    2.8798   -0.9993    0.9560 H   0  0  0  0  0  0  0  0  0  0  0  0
    1.4605    0.9918   -0.8327 H   0  0  0  0  0  0  0  0  0  0  0  0
    1.4557   -0.7702   -1.1159 H   0  0  0  0  0  0  0  0  0  0  0  0
   -1.5894    1.8221    0.1405 H   0  0  0  0  0  0  0  0  0  0  0  0
   -1.0406    1.1502   -1.5245 H   0  0  0  0  0  0  0  0  0  0  0  0
   -3.3189   -0.1841   -0.7172 H   0  0  0  0  0  0  0  0  0  0  0  0
   -2.0164   -1.3239    1.4805 H   0  0  0  0  0  0  0  0  0  0  0  0
   -2.1558    0.5439    1.6202 H   0  0  0  0  0  0  0  0  0  0  0  0
   -0.8431   -0.9754   -1.7878 H   0  0  0  0  0  0  0  0  0  0  0  0
   -1.3267   -2.1252   -0.4160 H   0  0  0  0  0  0  0  0  0  0  0  0
  1  2  1  0
  2  3  1  0
  3  4  1  0
  4  5  1  0
  5  6  1  0
  6  7  1  0
  7  8  1  0
  7  9  1  0
  8  5  1  0
  9  5  1  0
  1 10  1  0
  2 11  1  0
  2 12  1  0
  3 13  1  0
  3 14  1  0
  6 15  1  0
  6 16  1  0
  7 17  1  0
  8 18  1  0
  8 19  1  0
  9 20  1  0
  9 21  1  0
M  END
