
     RDKit          3D

 21 22  0  0  0  0  0  0  0  0999 V2000
    1.9857    0.6775    1.2436 O   0  0  0  0  0  0  0  0  0  0  0  0
    2.4861   -0.1274    0.2672 C   0  0  0  0  0  0  0  0  0  0  0  0
    1.7448   -0.2166   -1.0135 C   0  0  0  0  0  0  0  0  0  0  0  0
    0.4656   -0.6871   -0.8621 O   0  0  0  0  0  0  0  0  0  0  0  0
   -0.3206    0.1394   -0.1353 C   0  0  0  0  0  0  0  0  0  0  0  0
   -1.2136   -0.4990    0.8975 C   0  0  0  0  0  0  0  0  0  0  0  0
   -1.9804   -1.0653   -0.2457 C   0  0  0  0  0  0  0  0  0  0  0  0
   -1.7323    0.3386   -0.6694 C   0  0  0  0  0  0  0  0  0  0  0  0
   -2.0587    0.7451    0.7372 C   0  0  0  0  0  0  0  0  0  0  0  0
    2.3912    1.5855    1.2835 H   0  0  0  0  0  0  0  0  0  0  0  0
    3.5426    0.1815    0.0243 H   0  0  0  0  0  0  0  0  0  0  0  0
    2.6158   -1.1634    0.7046 H   0  0  0  0  0  0  0  0  0  0  0  0
    2.3307   -0.8645   -1.7191 H   0  0  0  0  0  0  0  0  0  0  0  0
    1.7291    0.7989   -1.5189 H   0  0  0  0  0  0  0  0  0  0  0  0
    0.0494    1.0943    0.2416 H   0  0  0  0  0  0  0  0  0  0  0  0
   -0.9378   -0.9278    1.7547 H   0  0  0  0  0  0  0  0  0  0  0  0
   -3.0509   -1.2541    0.0161 H   0  0  0  0  0  0  0  0  0  0  0  0
   -1.4923   -1.8568   -0.8402 H   0  0  0  0  0  0  0  0  0  0  0  0
   -1.9725    0.8028   -1.5181 H   0  0  0  0  0  0  0  0  0  0  0  0
   -1.4858    1.6256    1.0639 H   0  0  0  0  0  0  0  0  0  0  0  0
   -3.0960    0.6727    1.0573 H   0  0  0  0  0  0  0  0  0  0  0  0
  1  2  1  0
  2  3  1  0
  3  4  1  0
  4  5  1  0
  5  6  1  0
  6  7  1  0
  7  8  1  0
  8  9  1  0
  8  5  1  0
  9  6  1  0
  1 10  1  0
  2 11  1  0
  2 12  1  0
  3 13  1  0
  3 14  1  0
  5 15  1  0
  6 16  1  0
  7 17  1  0
  7 18  1  0
  8 19  1  0
  9 20  1  0
  9 21  1  0
M  END
