
     RDKit          3D

 17 16  0  0  0  0  0  0  0  0999 V2000
    2.2486    1.4826   -0.3154 O   0  0  0  0  0  0  0  0  0  0  0  0
    2.3194    0.1907    0.1966 C   0  0  0  0  0  0  0  0  0  0  0  0
    1.0944   -0.5889   -0.2333 C   0  0  0  0  0  0  0  0  0  0  0  0
   -0.0392    0.0405    0.2493 O   0  0  0  0  0  0  0  0  0  0  0  0
   -1.1606   -0.6803   -0.1488 C   0  0  0  0  0  0  0  0  0  0  0  0
   -2.4488   -0.0606    0.3373 C   0  0  0  0  0  0  0  0  0  0  0  0
   -2.6344    1.2315   -0.1331 O   0  0  0  0  0  0  0  0  0  0  0  0
    2.8516    2.0364    0.2458 H   0  0  0  0  0  0  0  0  0  0  0  0
    3.2287   -0.3550   -0.1419 H   0  0  0  0  0  0  0  0  0  0  0  0
    2.3293    0.2735    1.2918 H   0  0  0  0  0  0  0  0  0  0  0  0
    1.0532   -0.4992   -1.3572 H   0  0  0  0  0  0  0  0  0  0  0  0
    1.1774   -1.6459    0.0436 H   0  0  0  0  0  0  0  0  0  0  0  0
   -1.0869   -1.6777    0.3487 H   0  0  0  0  0  0  0  0  0  0  0  0
   -1.2495   -0.7676   -1.2506 H   0  0  0  0  0  0  0  0  0  0  0  0
   -2.5560   -0.1238    1.4398 H   0  0  0  0  0  0  0  0  0  0  0  0
   -3.2743   -0.6745   -0.0936 H   0  0  0  0  0  0  0  0  0  0  0  0
   -1.8527    1.8184    0.0099 H   0  0  0  0  0  0  0  0  0  0  0  0
  1  2  1  0
  2  3  1  0
  3  4  1  0
  4  5  1  0
  5  6  1  0
  6  7  1  0
  1  8  1  0
  2  9  1  0
  2 10  1  0
  3 11  1  0
  3 12  1  0
  5 13  1  0
  5 14  1  0
  6 15  1  0
  6 16  1  0
  7 17  1  0
M  END
