
     RDKit          3D

 21 22  0  0  0  0  0  0  0  0999 V2000
    2.9055    0.5681    0.3016 O   0  0  0  0  0  0  0  0  0  0  0  0
    2.0528   -0.3559    0.8892 C   0  0  0  0  0  0  0  0  0  0  0  0
    1.3545   -1.2131   -0.1358 C   0  0  0  0  0  0  0  0  0  0  0  0
    0.5837   -0.4585   -1.0122 O   0  0  0  0  0  0  0  0  0  0  0  0
   -0.3630    0.2146   -0.2731 C   0  0  0  0  0  0  0  0  0  0  0  0
   -1.3271   -0.5780    0.5314 C   0  0  0  0  0  0  0  0  0  0  0  0
   -2.5005    0.2862    0.0881 C   0  0  0  0  0  0  0  0  0  0  0  0
   -1.5898    0.7883   -1.0162 C   0  0  0  0  0  0  0  0  0  0  0  0
   -0.5051    1.6593   -0.5324 C   0  0  0  0  0  0  0  0  0  0  0  0
    3.5581    0.1436   -0.2902 H   0  0  0  0  0  0  0  0  0  0  0  0
    1.2737    0.1679    1.4639 H   0  0  0  0  0  0  0  0  0  0  0  0
    2.6424   -0.9486    1.6045 H   0  0  0  0  0  0  0  0  0  0  0  0
    0.7928   -2.0363    0.3486 H   0  0  0  0  0  0  0  0  0  0  0  0
    2.1507   -1.7043   -0.7416 H   0  0  0  0  0  0  0  0  0  0  0  0
   -1.1687   -0.6281    1.6172 H   0  0  0  0  0  0  0  0  0  0  0  0
   -1.4631   -1.5948    0.0862 H   0  0  0  0  0  0  0  0  0  0  0  0
   -3.3852   -0.2662   -0.2347 H   0  0  0  0  0  0  0  0  0  0  0  0
   -2.7281    1.0851    0.8492 H   0  0  0  0  0  0  0  0  0  0  0  0
   -1.7090    0.4491   -2.0358 H   0  0  0  0  0  0  0  0  0  0  0  0
    0.1430    2.1137   -1.2757 H   0  0  0  0  0  0  0  0  0  0  0  0
   -0.7178    2.3079    0.3477 H   0  0  0  0  0  0  0  0  0  0  0  0
  1  2  1  0
  2  3  1  0
  3  4  1  0
  4  5  1  0
  5  6  1  0
  6  7  1  0
  7  8  1  0
  8  9  1  0
  8  5  1  0
  9  5  1  0
  1 10  1  0
  2 11  1  0
  2 12  1  0
  3 13  1  0
  3 14  1  0
  6 15  1  0
  6 16  1  0
  7 17  1  0
  7 18  1  0
  8 19  1  0
  9 20  1  0
  9 21  1  0
M  END
