
     RDKit          3D

 18 18  0  0  0  0  0  0  0  0999 V2000
    2.0307   -0.6662   -1.8534 O   0  0  0  0  0  0  0  0  0  0  0  0
    2.2117   -1.1079   -0.5363 C   0  0  0  0  0  0  0  0  0  0  0  0
    0.8302   -1.2234    0.1295 C   0  0  0  0  0  0  0  0  0  0  0  0
    0.2835    0.0131    0.0922 O   0  0  0  0  0  0  0  0  0  0  0  0
   -0.9665    0.1623    0.6351 C   0  0  0  0  0  0  0  0  0  0  0  0
   -1.4271    1.3795    1.3131 C   0  0  0  0  0  0  0  0  0  0  0  0
   -1.9663    1.0908   -0.0190 C   0  0  0  0  0  0  0  0  0  0  0  0
   -1.4950    1.7437   -1.1548 O   0  0  0  0  0  0  0  0  0  0  0  0
    2.5722    0.1408   -2.0109 H   0  0  0  0  0  0  0  0  0  0  0  0
    2.6546   -2.1087   -0.5821 H   0  0  0  0  0  0  0  0  0  0  0  0
    2.8647   -0.4306    0.0160 H   0  0  0  0  0  0  0  0  0  0  0  0
    0.3011   -2.0102   -0.4243 H   0  0  0  0  0  0  0  0  0  0  0  0
    1.0414   -1.6227    1.1495 H   0  0  0  0  0  0  0  0  0  0  0  0
   -1.3742   -0.7951    1.0480 H   0  0  0  0  0  0  0  0  0  0  0  0
   -0.7397    2.2469    1.5093 H   0  0  0  0  0  0  0  0  0  0  0  0
   -2.1656    1.2844    2.1581 H   0  0  0  0  0  0  0  0  0  0  0  0
   -2.9809    0.7015   -0.1230 H   0  0  0  0  0  0  0  0  0  0  0  0
   -1.6749    1.2017   -1.9656 H   0  0  0  0  0  0  0  0  0  0  0  0
  1  2  1  0
  2  3  1  0
  3  4  1  0
  4  5  1  0
  5  6  1  0
  6  7  1  0
  7  8  1  0
  7  5  1  0
  1  9  1  0
  2 10  1  0
  2 11  1  0
  3 12  1  0
  3 13  1  0
  5 14  1  0
  6 15  1  0
  6 16  1  0
  7 17  1  0
  8 18  1  0
M  END
