
     RDKit          3D

 21 21  0  0  0  0  0  0  0  0999 V2000
    3.4459    1.0621   -0.6908 O   0  0  0  0  0  0  0  0  0  0  0  0
    3.0655   -0.2138   -0.3556 C   0  0  0  0  0  0  0  0  0  0  0  0
    1.6921   -0.2968    0.2494 C   0  0  0  0  0  0  0  0  0  0  0  0
    0.6960    0.1679   -0.5882 O   0  0  0  0  0  0  0  0  0  0  0  0
   -0.5018    0.0359    0.0847 C   0  0  0  0  0  0  0  0  0  0  0  0
   -1.2695    1.2702    0.2231 C   0  0  0  0  0  0  0  0  0  0  0  0
   -2.5588    0.9553    0.2914 C   0  0  0  0  0  0  0  0  0  0  0  0
   -2.7337   -0.5335    0.2007 C   0  0  0  0  0  0  0  0  0  0  0  0
   -1.4820   -0.8712   -0.6278 C   0  0  0  0  0  0  0  0  0  0  0  0
    3.2618    1.7400   -0.0035 H   0  0  0  0  0  0  0  0  0  0  0  0
    3.1839   -0.8548   -1.2443 H   0  0  0  0  0  0  0  0  0  0  0  0
    3.7800   -0.5994    0.4065 H   0  0  0  0  0  0  0  0  0  0  0  0
    1.6901    0.2880    1.1733 H   0  0  0  0  0  0  0  0  0  0  0  0
    1.5021   -1.3488    0.5209 H   0  0  0  0  0  0  0  0  0  0  0  0
   -0.3777   -0.4019    1.1132 H   0  0  0  0  0  0  0  0  0  0  0  0
   -0.8772    2.2957    0.2663 H   0  0  0  0  0  0  0  0  0  0  0  0
   -3.4031    1.6212    0.3964 H   0  0  0  0  0  0  0  0  0  0  0  0
   -3.6480   -0.8239   -0.3094 H   0  0  0  0  0  0  0  0  0  0  0  0
   -2.5683   -1.0271    1.1818 H   0  0  0  0  0  0  0  0  0  0  0  0
   -1.2158   -1.9274   -0.5553 H   0  0  0  0  0  0  0  0  0  0  0  0
   -1.6816   -0.5376   -1.6693 H   0  0  0  0  0  0  0  0  0  0  0  0
  1  2  1  0
  2  3  1  0
  3  4  1  0
  4  5  1  0
  5  6  1  0
  6  7  2  0
  7  8  1  0
  8  9  1  0
  9  5  1  0
  1 10  1  0
  2 11  1  0
  2 12  1  0
  3 13  1  0
  3 14  1  0
  5 15  1  0
  6 16  1  0
  7 17  1  0
  8 18  1  0
  8 19  1  0
  9 20  1  0
  9 21  1  0
M  END
