
     RDKit          3D

 21 21  0  0  0  0  0  0  0  0999 V2000
    1.9119    0.9342    2.3126 O   0  0  0  0  0  0  0  0  0  0  0  0
    2.2890   -0.2833    1.7628 C   0  0  0  0  0  0  0  0  0  0  0  0
    1.8697   -0.3440    0.3160 C   0  0  0  0  0  0  0  0  0  0  0  0
    0.4910   -0.2136    0.1589 O   0  0  0  0  0  0  0  0  0  0  0  0
    0.2419   -0.2867   -1.2158 C   0  0  0  0  0  0  0  0  0  0  0  0
   -1.2536   -0.1539   -1.5054 C   0  0  0  0  0  0  0  0  0  0  0  0
   -1.9794    1.0577   -1.1018 C   0  0  0  0  0  0  0  0  0  0  0  0
   -2.1978   -0.2516   -0.3958 C   0  0  0  0  0  0  0  0  0  0  0  0
   -1.8042   -0.2547    0.9355 O   0  0  0  0  0  0  0  0  0  0  0  0
    0.9393    1.0229    2.2383 H   0  0  0  0  0  0  0  0  0  0  0  0
    3.3917   -0.4102    1.7836 H   0  0  0  0  0  0  0  0  0  0  0  0
    1.8738   -1.1242    2.3597 H   0  0  0  0  0  0  0  0  0  0  0  0
    2.1934   -1.2822   -0.1606 H   0  0  0  0  0  0  0  0  0  0  0  0
    2.3181    0.5559   -0.1783 H   0  0  0  0  0  0  0  0  0  0  0  0
    0.7885    0.5322   -1.7669 H   0  0  0  0  0  0  0  0  0  0  0  0
    0.6189   -1.2296   -1.6645 H   0  0  0  0  0  0  0  0  0  0  0  0
   -1.5648   -0.6632   -2.4566 H   0  0  0  0  0  0  0  0  0  0  0  0
   -2.8137    1.3792   -1.7597 H   0  0  0  0  0  0  0  0  0  0  0  0
   -1.5003    1.9033   -0.5795 H   0  0  0  0  0  0  0  0  0  0  0  0
   -3.1888   -0.7680   -0.5601 H   0  0  0  0  0  0  0  0  0  0  0  0
   -2.6245   -0.1201    1.4776 H   0  0  0  0  0  0  0  0  0  0  0  0
  1  2  1  0
  2  3  1  0
  3  4  1  0
  4  5  1  0
  5  6  1  0
  6  7  1  0
  7  8  1  0
  8  9  1  0
  8  6  1  0
  1 10  1  0
  2 11  1  0
  2 12  1  0
  3 13  1  0
  3 14  1  0
  5 15  1  0
  5 16  1  0
  6 17  1  0
  7 18  1  0
  7 19  1  0
  8 20  1  0
  9 21  1  0
M  END
