
     RDKit          3D

 21 21  0  0  0  0  0  0  0  0999 V2000
    3.3324   -0.1524    0.1842 O   0  0  0  0  0  0  0  0  0  0  0  0
    2.6297    1.0508    0.1319 C   0  0  0  0  0  0  0  0  0  0  0  0
    1.1870    0.8239   -0.3231 C   0  0  0  0  0  0  0  0  0  0  0  0
    0.6117   -0.0258    0.6039 O   0  0  0  0  0  0  0  0  0  0  0  0
   -0.7011   -0.3390    0.3457 C   0  0  0  0  0  0  0  0  0  0  0  0
   -1.6338    0.8502    0.3070 C   0  0  0  0  0  0  0  0  0  0  0  0
   -2.9493    0.4282    0.0373 O   0  0  0  0  0  0  0  0  0  0  0  0
   -1.1737   -1.6238    0.9907 C   0  0  0  0  0  0  0  0  0  0  0  0
   -1.0972   -1.4901   -0.4894 C   0  0  0  0  0  0  0  0  0  0  0  0
    3.4696   -0.5619   -0.6946 H   0  0  0  0  0  0  0  0  0  0  0  0
    2.5766    1.4306    1.1692 H   0  0  0  0  0  0  0  0  0  0  0  0
    3.0985    1.7825   -0.5724 H   0  0  0  0  0  0  0  0  0  0  0  0
    0.7064    1.8237   -0.3384 H   0  0  0  0  0  0  0  0  0  0  0  0
    1.1641    0.4363   -1.3496 H   0  0  0  0  0  0  0  0  0  0  0  0
   -1.3305    1.4423   -0.6051 H   0  0  0  0  0  0  0  0  0  0  0  0
   -1.5584    1.4426    1.2231 H   0  0  0  0  0  0  0  0  0  0  0  0
   -3.3121    0.1128    0.9179 H   0  0  0  0  0  0  0  0  0  0  0  0
   -0.4311   -2.2632    1.5237 H   0  0  0  0  0  0  0  0  0  0  0  0
   -2.1667   -1.6439    1.4975 H   0  0  0  0  0  0  0  0  0  0  0  0
   -2.0788   -1.4555   -1.0024 H   0  0  0  0  0  0  0  0  0  0  0  0
   -0.3433   -2.0684   -1.0802 H   0  0  0  0  0  0  0  0  0  0  0  0
  1  2  1  0
  2  3  1  0
  3  4  1  0
  4  5  1  0
  5  6  1  0
  6  7  1  0
  5  8  1  0
  8  9  1  0
  9  5  1  0
  1 10  1  0
  2 11  1  0
  2 12  1  0
  3 13  1  0
  3 14  1  0
  6 15  1  0
  6 16  1  0
  7 17  1  0
  8 18  1  0
  8 19  1  0
  9 20  1  0
  9 21  1  0
M  END
