
     RDKit          3D

 23 23  0  0  0  0  0  0  0  0999 V2000
    3.4294    0.9942   -0.8980 O   0  0  0  0  0  0  0  0  0  0  0  0
    3.4717    0.3186    0.3095 C   0  0  0  0  0  0  0  0  0  0  0  0
    2.0222    0.0409    0.7352 C   0  0  0  0  0  0  0  0  0  0  0  0
    1.4696   -0.7268   -0.2659 O   0  0  0  0  0  0  0  0  0  0  0  0
    0.1655   -1.0979   -0.0870 C   0  0  0  0  0  0  0  0  0  0  0  0
   -0.6898    0.1400    0.0182 C   0  0  0  0  0  0  0  0  0  0  0  0
   -2.1280   -0.3290    0.2126 C   0  0  0  0  0  0  0  0  0  0  0  0
   -3.2027    0.7021    0.3483 C   0  0  0  0  0  0  0  0  0  0  0  0
   -3.0706   -0.0452   -0.9078 C   0  0  0  0  0  0  0  0  0  0  0  0
    3.6612    0.3704   -1.6496 H   0  0  0  0  0  0  0  0  0  0  0  0
    3.9687   -0.6522    0.2703 H   0  0  0  0  0  0  0  0  0  0  0  0
    3.9323    0.9475    1.0763 H   0  0  0  0  0  0  0  0  0  0  0  0
    1.5536    1.0648    0.7747 H   0  0  0  0  0  0  0  0  0  0  0  0
    1.9851   -0.4747    1.6984 H   0  0  0  0  0  0  0  0  0  0  0  0
    0.0911   -1.6588    0.8703 H   0  0  0  0  0  0  0  0  0  0  0  0
   -0.1277   -1.7537   -0.9158 H   0  0  0  0  0  0  0  0  0  0  0  0
   -0.5599    0.7400   -0.8804 H   0  0  0  0  0  0  0  0  0  0  0  0
   -0.4266    0.6573    0.9647 H   0  0  0  0  0  0  0  0  0  0  0  0
   -2.2221   -1.2058    0.8551 H   0  0  0  0  0  0  0  0  0  0  0  0
   -4.0603    0.5295    1.0351 H   0  0  0  0  0  0  0  0  0  0  0  0
   -2.8624    1.7652    0.3713 H   0  0  0  0  0  0  0  0  0  0  0  0
   -3.7343   -0.8577   -1.2070 H   0  0  0  0  0  0  0  0  0  0  0  0
   -2.6662    0.5314   -1.7794 H   0  0  0  0  0  0  0  0  0  0  0  0
  1  2  1  0
  2  3  1  0
  3  4  1  0
  4  5  1  0
  5  6  1  0
  6  7  1  0
  7  8  1  0
  8  9  1  0
  9  7  1  0
  1 10  1  0
  2 11  1  0
  2 12  1  0
  3 13  1  0
  3 14  1  0
  5 15  1  0
  5 16  1  0
  6 17  1  0
  6 18  1  0
  7 19  1  0
  8 20  1  0
  8 21  1  0
  9 22  1  0
  9 23  1  0
M  END
