
     RDKit          3D

 21 21  0  0  0  0  0  0  0  0999 V2000
   -2.7851    0.9798    0.8607 O   0  0  0  0  0  0  0  0  0  0  0  0
   -2.9462   -0.0058   -0.0776 C   0  0  0  0  0  0  0  0  0  0  0  0
   -1.8871   -1.0360   -0.1673 C   0  0  0  0  0  0  0  0  0  0  0  0
   -0.6414   -0.5783   -0.4776 O   0  0  0  0  0  0  0  0  0  0  0  0
   -0.1113    0.3097    0.4001 C   0  0  0  0  0  0  0  0  0  0  0  0
    1.3093    0.7076    0.0072 C   0  0  0  0  0  0  0  0  0  0  0  0
    2.2258   -0.4884   -0.0312 C   0  0  0  0  0  0  0  0  0  0  0  0
    3.6478   -0.1451   -0.4163 C   0  0  0  0  0  0  0  0  0  0  0  0
    3.2106   -0.6422    0.9192 O   0  0  0  0  0  0  0  0  0  0  0  0
   -3.1173    1.8426    0.4545 H   0  0  0  0  0  0  0  0  0  0  0  0
   -3.0629    0.4352   -1.1136 H   0  0  0  0  0  0  0  0  0  0  0  0
   -3.9115   -0.5304    0.1952 H   0  0  0  0  0  0  0  0  0  0  0  0
   -1.8727   -1.7161    0.7278 H   0  0  0  0  0  0  0  0  0  0  0  0
   -2.1980   -1.7543   -0.9981 H   0  0  0  0  0  0  0  0  0  0  0  0
   -0.2062    0.0116    1.4483 H   0  0  0  0  0  0  0  0  0  0  0  0
   -0.6695    1.2951    0.3050 H   0  0  0  0  0  0  0  0  0  0  0  0
    1.6803    1.4257    0.7630 H   0  0  0  0  0  0  0  0  0  0  0  0
    1.2423    1.2352   -0.9482 H   0  0  0  0  0  0  0  0  0  0  0  0
    1.8334   -1.3806   -0.5593 H   0  0  0  0  0  0  0  0  0  0  0  0
    3.9815    0.9122   -0.3620 H   0  0  0  0  0  0  0  0  0  0  0  0
    4.2779   -0.8775   -0.9298 H   0  0  0  0  0  0  0  0  0  0  0  0
  1  2  1  0
  2  3  1  0
  3  4  1  0
  4  5  1  0
  5  6  1  0
  6  7  1  0
  7  8  1  0
  8  9  1  0
  9  7  1  0
  1 10  1  0
  2 11  1  0
  2 12  1  0
  3 13  1  0
  3 14  1  0
  5 15  1  0
  5 16  1  0
  6 17  1  0
  6 18  1  0
  7 19  1  0
  8 20  1  0
  8 21  1  0
M  END
