
     RDKit          3D

 19 20  0  0  0  0  0  0  0  0999 V2000
    3.3546   -0.7437   -0.6041 O   0  0  0  0  0  0  0  0  0  0  0  0
    2.0556   -0.6834   -0.1090 C   0  0  0  0  0  0  0  0  0  0  0  0
    1.5621    0.7384   -0.0179 C   0  0  0  0  0  0  0  0  0  0  0  0
    0.2833    0.7395    0.4741 O   0  0  0  0  0  0  0  0  0  0  0  0
   -0.6505    0.0784   -0.2874 C   0  0  0  0  0  0  0  0  0  0  0  0
   -1.5036   -0.7920    0.6251 C   0  0  0  0  0  0  0  0  0  0  0  0
   -2.5947    0.2231    0.6365 C   0  0  0  0  0  0  0  0  0  0  0  0
   -2.3538    1.5675    0.5876 O   0  0  0  0  0  0  0  0  0  0  0  0
   -1.8864    0.9165   -0.5214 C   0  0  0  0  0  0  0  0  0  0  0  0
    3.7523    0.1786   -0.5760 H   0  0  0  0  0  0  0  0  0  0  0  0
    1.3515   -1.3026   -0.6879 H   0  0  0  0  0  0  0  0  0  0  0  0
    2.0176   -1.0886    0.9438 H   0  0  0  0  0  0  0  0  0  0  0  0
    2.2451    1.2528    0.7069 H   0  0  0  0  0  0  0  0  0  0  0  0
    1.5933    1.2591   -0.9979 H   0  0  0  0  0  0  0  0  0  0  0  0
   -0.3490   -0.3914   -1.2215 H   0  0  0  0  0  0  0  0  0  0  0  0
   -1.0712   -0.9587    1.6392 H   0  0  0  0  0  0  0  0  0  0  0  0
   -1.7555   -1.7294    0.0879 H   0  0  0  0  0  0  0  0  0  0  0  0
   -3.6298   -0.1416    0.4869 H   0  0  0  0  0  0  0  0  0  0  0  0
   -2.4209    0.8774   -1.4654 H   0  0  0  0  0  0  0  0  0  0  0  0
  1  2  1  0
  2  3  1  0
  3  4  1  0
  4  5  1  0
  5  6  1  0
  6  7  1  0
  7  8  1  0
  8  9  1  0
  9  5  1  0
  9  7  1  0
  1 10  1  0
  2 11  1  0
  2 12  1  0
  3 13  1  0
  3 14  1  0
  5 15  1  0
  6 16  1  0
  6 17  1  0
  7 18  1  0
  9 19  1  0
M  END
