
     RDKit          3D

 18 18  0  0  0  0  0  0  0  0999 V2000
    2.1989    0.8324    1.0536 O   0  0  0  0  0  0  0  0  0  0  0  0
    2.1130    0.2443   -0.2114 C   0  0  0  0  0  0  0  0  0  0  0  0
    1.4889   -1.1097   -0.1647 C   0  0  0  0  0  0  0  0  0  0  0  0
    0.2008   -1.1420    0.3340 O   0  0  0  0  0  0  0  0  0  0  0  0
   -0.6844   -0.3729   -0.4101 C   0  0  0  0  0  0  0  0  0  0  0  0
   -2.0826   -0.4084    0.1255 C   0  0  0  0  0  0  0  0  0  0  0  0
   -2.6736    0.9528    0.4421 C   0  0  0  0  0  0  0  0  0  0  0  0
   -2.3764    0.0178    1.3968 O   0  0  0  0  0  0  0  0  0  0  0  0
    2.8782    1.5412    0.9857 H   0  0  0  0  0  0  0  0  0  0  0  0
    1.6690    0.9438   -0.9257 H   0  0  0  0  0  0  0  0  0  0  0  0
    3.1736    0.0920   -0.5724 H   0  0  0  0  0  0  0  0  0  0  0  0
    2.1118   -1.7521    0.4944 H   0  0  0  0  0  0  0  0  0  0  0  0
    1.4441   -1.5034   -1.2036 H   0  0  0  0  0  0  0  0  0  0  0  0
   -0.2884    0.6640   -0.4606 H   0  0  0  0  0  0  0  0  0  0  0  0
   -0.7061   -0.7981   -1.4348 H   0  0  0  0  0  0  0  0  0  0  0  0
   -2.7738   -1.1644   -0.2963 H   0  0  0  0  0  0  0  0  0  0  0  0
   -2.0061    1.8387    0.4247 H   0  0  0  0  0  0  0  0  0  0  0  0
   -3.6870    1.1239    0.0704 H   0  0  0  0  0  0  0  0  0  0  0  0
  1  2  1  0
  2  3  1  0
  3  4  1  0
  4  5  1  0
  5  6  1  0
  6  7  1  0
  7  8  1  0
  8  6  1  0
  1  9  1  0
  2 10  1  0
  2 11  1  0
  3 12  1  0
  3 13  1  0
  5 14  1  0
  5 15  1  0
  6 16  1  0
  7 17  1  0
  7 18  1  0
M  END
