
     RDKit          3D

 19 19  0  0  0  0  0  0  0  0999 V2000
    2.7261    0.6855    0.8457 O   0  0  0  0  0  0  0  0  0  0  0  0
    2.2520    0.3920   -0.4327 C   0  0  0  0  0  0  0  0  0  0  0  0
    1.5858   -0.9416   -0.5104 C   0  0  0  0  0  0  0  0  0  0  0  0
    0.4870   -1.0983    0.3155 O   0  0  0  0  0  0  0  0  0  0  0  0
   -0.4867   -0.1894    0.0016 C   0  0  0  0  0  0  0  0  0  0  0  0
   -1.7801   -0.8039   -0.3626 C   0  0  0  0  0  0  0  0  0  0  0  0
   -2.7408   -0.0629    0.1633 C   0  0  0  0  0  0  0  0  0  0  0  0
   -2.0942    1.0553    0.8841 C   0  0  0  0  0  0  0  0  0  0  0  0
   -0.7982    0.6630    1.0678 O   0  0  0  0  0  0  0  0  0  0  0  0
    3.0232   -0.1169    1.3358 H   0  0  0  0  0  0  0  0  0  0  0  0
    1.6812    1.2407   -0.8020 H   0  0  0  0  0  0  0  0  0  0  0  0
    3.1868    0.3086   -1.0644 H   0  0  0  0  0  0  0  0  0  0  0  0
    1.2602   -1.1058   -1.5682 H   0  0  0  0  0  0  0  0  0  0  0  0
    2.3691   -1.7146   -0.3190 H   0  0  0  0  0  0  0  0  0  0  0  0
   -0.1752    0.4538   -0.8424 H   0  0  0  0  0  0  0  0  0  0  0  0
   -1.8701   -1.7023   -0.9571 H   0  0  0  0  0  0  0  0  0  0  0  0
   -3.8362   -0.2500    0.0770 H   0  0  0  0  0  0  0  0  0  0  0  0
   -2.1750    1.9915    0.2933 H   0  0  0  0  0  0  0  0  0  0  0  0
   -2.6149    1.1955    1.8744 H   0  0  0  0  0  0  0  0  0  0  0  0
  1  2  1  0
  2  3  1  0
  3  4  1  0
  4  5  1  0
  5  6  1  0
  6  7  2  0
  7  8  1  0
  8  9  1  0
  9  5  1  0
  1 10  1  0
  2 11  1  0
  2 12  1  0
  3 13  1  0
  3 14  1  0
  5 15  1  0
  6 16  1  0
  7 17  1  0
  8 18  1  0
  8 19  1  0
M  END
