
     RDKit          3D

 21 21  0  0  0  0  0  0  0  0999 V2000
   -4.1766    0.4139   -0.4312 O   0  0  0  0  0  0  0  0  0  0  0  0
   -2.9375   -0.1697   -0.5043 C   0  0  0  0  0  0  0  0  0  0  0  0
   -1.9047    0.5558    0.3698 C   0  0  0  0  0  0  0  0  0  0  0  0
   -0.7180   -0.1256    0.2053 O   0  0  0  0  0  0  0  0  0  0  0  0
    0.3368    0.3991    0.9310 C   0  0  0  0  0  0  0  0  0  0  0  0
    1.5509   -0.4432    0.6508 C   0  0  0  0  0  0  0  0  0  0  0  0
    2.1722   -0.1059   -0.6904 C   0  0  0  0  0  0  0  0  0  0  0  0
    3.4274   -0.3515    0.1200 C   0  0  0  0  0  0  0  0  0  0  0  0
    2.7170   -0.0561    1.3041 O   0  0  0  0  0  0  0  0  0  0  0  0
   -4.8580   -0.2847   -0.4034 H   0  0  0  0  0  0  0  0  0  0  0  0
   -2.6005   -0.1654   -1.5720 H   0  0  0  0  0  0  0  0  0  0  0  0
   -2.9939   -1.2268   -0.2059 H   0  0  0  0  0  0  0  0  0  0  0  0
   -2.2671    0.4697    1.4193 H   0  0  0  0  0  0  0  0  0  0  0  0
   -1.8597    1.6162    0.0409 H   0  0  0  0  0  0  0  0  0  0  0  0
    0.1317    0.4893    2.0081 H   0  0  0  0  0  0  0  0  0  0  0  0
    0.5151    1.4305    0.5431 H   0  0  0  0  0  0  0  0  0  0  0  0
    1.3898   -1.5292    0.7976 H   0  0  0  0  0  0  0  0  0  0  0  0
    1.9594   -0.8512   -1.4777 H   0  0  0  0  0  0  0  0  0  0  0  0
    2.0909    0.9466   -0.9590 H   0  0  0  0  0  0  0  0  0  0  0  0
    3.7916   -1.4059    0.0831 H   0  0  0  0  0  0  0  0  0  0  0  0
    4.2331    0.3940   -0.0148 H   0  0  0  0  0  0  0  0  0  0  0  0
  1  2  1  0
  2  3  1  0
  3  4  1  0
  4  5  1  0
  5  6  1  0
  6  7  1  0
  7  8  1  0
  8  9  1  0
  9  6  1  0
  1 10  1  0
  2 11  1  0
  2 12  1  0
  3 13  1  0
  3 14  1  0
  5 15  1  0
  5 16  1  0
  6 17  1  0
  7 18  1  0
  7 19  1  0
  8 20  1  0
  8 21  1  0
M  END
