
     RDKit          3D

 23 23  0  0  0  0  0  0  0  0999 V2000
    4.2288    0.2003   -0.4551 O   0  0  0  0  0  0  0  0  0  0  0  0
    3.2210   -0.4194    0.3141 C   0  0  0  0  0  0  0  0  0  0  0  0
    1.8892    0.1128   -0.2095 C   0  0  0  0  0  0  0  0  0  0  0  0
    0.8425   -0.4451    0.4917 O   0  0  0  0  0  0  0  0  0  0  0  0
   -0.3627    0.0149    0.0426 C   0  0  0  0  0  0  0  0  0  0  0  0
   -1.2000    0.6465    1.1587 C   0  0  0  0  0  0  0  0  0  0  0  0
   -2.4892    0.8584    0.3575 C   0  0  0  0  0  0  0  0  0  0  0  0
   -2.6819   -0.5576   -0.1989 C   0  0  0  0  0  0  0  0  0  0  0  0
   -1.2812   -1.1013   -0.3940 C   0  0  0  0  0  0  0  0  0  0  0  0
    4.1716    1.1722   -0.2813 H   0  0  0  0  0  0  0  0  0  0  0  0
    3.2682   -1.5186    0.2044 H   0  0  0  0  0  0  0  0  0  0  0  0
    3.3858   -0.0751    1.3492 H   0  0  0  0  0  0  0  0  0  0  0  0
    1.9003    1.2025    0.0017 H   0  0  0  0  0  0  0  0  0  0  0  0
    1.8197    0.0045   -1.3011 H   0  0  0  0  0  0  0  0  0  0  0  0
   -0.2908    0.7446   -0.7936 H   0  0  0  0  0  0  0  0  0  0  0  0
   -0.7797    1.5712    1.5304 H   0  0  0  0  0  0  0  0  0  0  0  0
   -1.3737   -0.1415    1.8944 H   0  0  0  0  0  0  0  0  0  0  0  0
   -2.2563    1.5307   -0.4917 H   0  0  0  0  0  0  0  0  0  0  0  0
   -3.3200    1.1809    0.9777 H   0  0  0  0  0  0  0  0  0  0  0  0
   -3.2269   -0.5194   -1.1506 H   0  0  0  0  0  0  0  0  0  0  0  0
   -3.2277   -1.1089    0.6015 H   0  0  0  0  0  0  0  0  0  0  0  0
   -1.1367   -1.9456    0.3089 H   0  0  0  0  0  0  0  0  0  0  0  0
   -1.1004   -1.4069   -1.4488 H   0  0  0  0  0  0  0  0  0  0  0  0
  1  2  1  0
  2  3  1  0
  3  4  1  0
  4  5  1  0
  5  6  1  0
  6  7  1  0
  7  8  1  0
  8  9  1  0
  9  5  1  0
  1 10  1  0
  2 11  1  0
  2 12  1  0
  3 13  1  0
  3 14  1  0
  5 15  1  0
  6 16  1  0
  6 17  1  0
  7 18  1  0
  7 19  1  0
  8 20  1  0
  8 21  1  0
  9 22  1  0
  9 23  1  0
M  END
