
     RDKit          3D

 20 20  0  0  0  0  0  0  0  0999 V2000
    2.5736    0.8510   -0.0027 O   0  0  0  0  0  0  0  0  0  0  0  0
    2.4827   -0.4960   -0.3040 C   0  0  0  0  0  0  0  0  0  0  0  0
    1.3737   -1.2377    0.3392 C   0  0  0  0  0  0  0  0  0  0  0  0
    0.0949   -0.8722    0.0988 O   0  0  0  0  0  0  0  0  0  0  0  0
   -0.1786    0.4006    0.4737 C   0  0  0  0  0  0  0  0  0  0  0  0
   -1.6331    0.7924    0.2669 C   0  0  0  0  0  0  0  0  0  0  0  0
   -2.1460    0.7274   -1.0978 C   0  0  0  0  0  0  0  0  0  0  0  0
   -2.6602   -0.2066   -0.0508 C   0  0  0  0  0  0  0  0  0  0  0  0
    2.7222    1.4072   -0.8179 H   0  0  0  0  0  0  0  0  0  0  0  0
    3.4336   -0.9609    0.1030 H   0  0  0  0  0  0  0  0  0  0  0  0
    2.5460   -0.6685   -1.4106 H   0  0  0  0  0  0  0  0  0  0  0  0
    1.6170   -1.2562    1.4529 H   0  0  0  0  0  0  0  0  0  0  0  0
    1.4775   -2.3290    0.0365 H   0  0  0  0  0  0  0  0  0  0  0  0
    0.3805    1.0856   -0.2378 H   0  0  0  0  0  0  0  0  0  0  0  0
    0.1712    0.6268    1.4974 H   0  0  0  0  0  0  0  0  0  0  0  0
   -1.9184    1.6683    0.8782 H   0  0  0  0  0  0  0  0  0  0  0  0
   -1.4683    0.3073   -1.8875 H   0  0  0  0  0  0  0  0  0  0  0  0
   -2.8052    1.5418   -1.4948 H   0  0  0  0  0  0  0  0  0  0  0  0
   -2.3877   -1.2882   -0.2162 H   0  0  0  0  0  0  0  0  0  0  0  0
   -3.6755   -0.0931    0.3712 H   0  0  0  0  0  0  0  0  0  0  0  0
  1  2  1  0
  2  3  1  0
  3  4  1  0
  4  5  1  0
  5  6  1  0
  6  7  1  0
  7  8  1  0
  8  6  1  0
  1  9  1  0
  2 10  1  0
  2 11  1  0
  3 12  1  0
  3 13  1  0
  5 14  1  0
  5 15  1  0
  6 16  1  0
  7 17  1  0
  7 18  1  0
  8 19  1  0
  8 20  1  0
M  END
