
     RDKit          3D

 21 21  0  0  0  0  0  0  0  0999 V2000
    2.5437    1.3194    0.3360 O   0  0  0  0  0  0  0  0  0  0  0  0
    2.4284    0.0032   -0.0593 C   0  0  0  0  0  0  0  0  0  0  0  0
    1.8291   -0.7921    1.0771 C   0  0  0  0  0  0  0  0  0  0  0  0
    0.5806   -0.3542    1.4555 O   0  0  0  0  0  0  0  0  0  0  0  0
   -0.3592   -0.4107    0.4461 C   0  0  0  0  0  0  0  0  0  0  0  0
   -0.9826    0.9632    0.2976 C   0  0  0  0  0  0  0  0  0  0  0  0
   -2.2657    0.6360   -0.4301 C   0  0  0  0  0  0  0  0  0  0  0  0
   -2.4006   -0.8480   -0.2052 C   0  0  0  0  0  0  0  0  0  0  0  0
   -1.4681   -1.1797    0.7829 O   0  0  0  0  0  0  0  0  0  0  0  0
    2.8160    1.9415   -0.3673 H   0  0  0  0  0  0  0  0  0  0  0  0
    1.8998   -0.1358   -1.0085 H   0  0  0  0  0  0  0  0  0  0  0  0
    3.4644   -0.3852   -0.2027 H   0  0  0  0  0  0  0  0  0  0  0  0
    2.5041   -0.6500    1.9583 H   0  0  0  0  0  0  0  0  0  0  0  0
    1.7974   -1.8752    0.8587 H   0  0  0  0  0  0  0  0  0  0  0  0
    0.0318   -0.7968   -0.5067 H   0  0  0  0  0  0  0  0  0  0  0  0
   -1.2130    1.3232    1.3076 H   0  0  0  0  0  0  0  0  0  0  0  0
   -0.3374    1.6517   -0.2813 H   0  0  0  0  0  0  0  0  0  0  0  0
   -2.1015    0.8922   -1.5055 H   0  0  0  0  0  0  0  0  0  0  0  0
   -3.1461    1.1627   -0.0031 H   0  0  0  0  0  0  0  0  0  0  0  0
   -2.1791   -1.3693   -1.1587 H   0  0  0  0  0  0  0  0  0  0  0  0
   -3.4421   -1.0961    0.1027 H   0  0  0  0  0  0  0  0  0  0  0  0
  1  2  1  0
  2  3  1  0
  3  4  1  0
  4  5  1  0
  5  6  1  0
  6  7  1  0
  7  8  1  0
  8  9  1  0
  9  5  1  0
  1 10  1  0
  2 11  1  0
  2 12  1  0
  3 13  1  0
  3 14  1  0
  5 15  1  0
  6 16  1  0
  6 17  1  0
  7 18  1  0
  7 19  1  0
  8 20  1  0
  8 21  1  0
M  END
