
     RDKit          3D

 19 20  0  0  0  0  0  0  0  0999 V2000
    3.2912   -0.6232    0.8214 O   0  0  0  0  0  0  0  0  0  0  0  0
    2.0913   -0.0432    0.4047 C   0  0  0  0  0  0  0  0  0  0  0  0
    1.4787   -0.8075   -0.7346 C   0  0  0  0  0  0  0  0  0  0  0  0
    0.3055   -0.1818   -1.0910 O   0  0  0  0  0  0  0  0  0  0  0  0
   -0.6441   -0.1046   -0.1092 C   0  0  0  0  0  0  0  0  0  0  0  0
   -1.4033    1.1753    0.0075 C   0  0  0  0  0  0  0  0  0  0  0  0
   -2.5586    0.3827    0.5282 C   0  0  0  0  0  0  0  0  0  0  0  0
   -2.0205   -0.3254   -0.6673 C   0  0  0  0  0  0  0  0  0  0  0  0
   -1.8929    0.9162   -1.2643 O   0  0  0  0  0  0  0  0  0  0  0  0
    3.8890    0.1364    1.0986 H   0  0  0  0  0  0  0  0  0  0  0  0
    2.3094    0.9861    0.0097 H   0  0  0  0  0  0  0  0  0  0  0  0
    1.4624    0.0756    1.2834 H   0  0  0  0  0  0  0  0  0  0  0  0
    1.3263   -1.8901   -0.4816 H   0  0  0  0  0  0  0  0  0  0  0  0
    2.1850   -0.7808   -1.5808 H   0  0  0  0  0  0  0  0  0  0  0  0
   -0.4334   -0.5295    0.8714 H   0  0  0  0  0  0  0  0  0  0  0  0
   -1.0643    2.0597    0.3538 H   0  0  0  0  0  0  0  0  0  0  0  0
   -3.5431    0.8743    0.4237 H   0  0  0  0  0  0  0  0  0  0  0  0
   -2.4119   -0.1493    1.4856 H   0  0  0  0  0  0  0  0  0  0  0  0
   -2.3665   -1.1709   -1.0919 H   0  0  0  0  0  0  0  0  0  0  0  0
  1  2  1  0
  2  3  1  0
  3  4  1  0
  4  5  1  0
  5  6  1  0
  6  7  1  0
  7  8  1  0
  8  9  1  0
  8  5  1  0
  9  6  1  0
  1 10  1  0
  2 11  1  0
  2 12  1  0
  3 13  1  0
  3 14  1  0
  5 15  1  0
  6 16  1  0
  7 17  1  0
  7 18  1  0
  8 19  1  0
M  END
