
     RDKit          3D

 20 20  0  0  0  0  0  0  0  0999 V2000
   -3.0676    1.3157    0.3165 O   0  0  0  0  0  0  0  0  0  0  0  0
   -2.8274    0.1899   -0.4707 C   0  0  0  0  0  0  0  0  0  0  0  0
   -1.5546   -0.5152   -0.0809 C   0  0  0  0  0  0  0  0  0  0  0  0
   -0.4359    0.3040   -0.2080 O   0  0  0  0  0  0  0  0  0  0  0  0
    0.6728   -0.4277    0.1699 C   0  0  0  0  0  0  0  0  0  0  0  0
    1.5445    0.2008    1.2344 C   0  0  0  0  0  0  0  0  0  0  0  0
    2.4891    0.6450    0.1436 C   0  0  0  0  0  0  0  0  0  0  0  0
    1.8496   -0.3820   -0.7644 C   0  0  0  0  0  0  0  0  0  0  0  0
   -2.6867    1.2074    1.2344 H   0  0  0  0  0  0  0  0  0  0  0  0
   -2.7411    0.4499   -1.5459 H   0  0  0  0  0  0  0  0  0  0  0  0
   -3.6723   -0.5191   -0.3589 H   0  0  0  0  0  0  0  0  0  0  0  0
   -1.5809   -0.9624    0.9182 H   0  0  0  0  0  0  0  0  0  0  0  0
   -1.4142   -1.3464   -0.8104 H   0  0  0  0  0  0  0  0  0  0  0  0
    0.4436   -1.4852    0.4864 H   0  0  0  0  0  0  0  0  0  0  0  0
    0.9820    1.0114    1.7351 H   0  0  0  0  0  0  0  0  0  0  0  0
    2.0313   -0.4974    1.9327 H   0  0  0  0  0  0  0  0  0  0  0  0
    3.5591    0.4536    0.3766 H   0  0  0  0  0  0  0  0  0  0  0  0
    2.3482    1.6965   -0.1589 H   0  0  0  0  0  0  0  0  0  0  0  0
    2.4415   -1.3154   -0.7304 H   0  0  0  0  0  0  0  0  0  0  0  0
    1.6190   -0.0231   -1.7860 H   0  0  0  0  0  0  0  0  0  0  0  0
  1  2  1  0
  2  3  1  0
  3  4  1  0
  4  5  1  0
  5  6  1  0
  6  7  1  0
  7  8  1  0
  8  5  1  0
  1  9  1  0
  2 10  1  0
  2 11  1  0
  3 12  1  0
  3 13  1  0
  5 14  1  0
  6 15  1  0
  6 16  1  0
  7 17  1  0
  7 18  1  0
  8 19  1  0
  8 20  1  0
M  END
