
     RDKit          3D

 21 22  0  0  0  0  0  0  0  0999 V2000
    3.6762   -1.1935   -0.5461 O   0  0  0  0  0  0  0  0  0  0  0  0
    2.4243   -0.5889   -0.6244 C   0  0  0  0  0  0  0  0  0  0  0  0
    2.1523    0.3112    0.5558 C   0  0  0  0  0  0  0  0  0  0  0  0
    0.9408    0.8746    0.4450 O   0  0  0  0  0  0  0  0  0  0  0  0
   -0.1789    0.0658    0.4276 C   0  0  0  0  0  0  0  0  0  0  0  0
   -1.4870    0.5458    0.9275 C   0  0  0  0  0  0  0  0  0  0  0  0
   -2.8264    0.7001    0.3198 C   0  0  0  0  0  0  0  0  0  0  0  0
   -2.4868   -0.4633   -0.6314 C   0  0  0  0  0  0  0  0  0  0  0  0
   -1.1831    0.2773   -0.4786 C   0  0  0  0  0  0  0  0  0  0  0  0
    4.3729   -0.6160   -0.1931 H   0  0  0  0  0  0  0  0  0  0  0  0
    2.4158    0.0215   -1.5668 H   0  0  0  0  0  0  0  0  0  0  0  0
    1.6372   -1.3377   -0.7418 H   0  0  0  0  0  0  0  0  0  0  0  0
    2.3811   -0.1786    1.5224 H   0  0  0  0  0  0  0  0  0  0  0  0
    2.9057    1.1521    0.4508 H   0  0  0  0  0  0  0  0  0  0  0  0
    0.1590   -1.0149    0.5384 H   0  0  0  0  0  0  0  0  0  0  0  0
   -1.5885    0.0480    1.8604 H   0  0  0  0  0  0  0  0  0  0  0  0
   -3.0099    1.6101   -0.2975 H   0  0  0  0  0  0  0  0  0  0  0  0
   -3.7117    0.4230    0.8690 H   0  0  0  0  0  0  0  0  0  0  0  0
   -2.4235   -1.4393   -0.1282 H   0  0  0  0  0  0  0  0  0  0  0  0
   -2.9800   -0.4128   -1.5976 H   0  0  0  0  0  0  0  0  0  0  0  0
   -1.1893    1.2155   -1.1112 H   0  0  0  0  0  0  0  0  0  0  0  0
  1  2  1  0
  2  3  1  0
  3  4  1  0
  4  5  1  0
  5  6  1  0
  6  7  1  0
  7  8  1  0
  8  9  1  0
  9  5  1  0
  9  6  1  0
  1 10  1  0
  2 11  1  0
  2 12  1  0
  3 13  1  0
  3 14  1  0
  5 15  1  0
  6 16  1  0
  7 17  1  0
  7 18  1  0
  8 19  1  0
  8 20  1  0
  9 21  1  0
M  END
